<?xml version="1.0" encoding="UTF-8"?>

<!-- generated on 2025-09-12 19:32:22 by Eclipse SUMO sumo Version 1.22.0
-->

<sumoConfiguration xmlns:xsi="http://www.w3.org/2001/XMLSchema-instance" xsi:noNamespaceSchemaLocation="http://sumo.dlr.de/xsd/sumoConfiguration.xsd">

    <input>
        <net-file value="ComplexNetwork.net.xml"/>
        <route-files value="ComplexNetwork.rou.xml"/>
    </input>

</sumoConfiguration>
