<?xml version="1.0" encoding="UTF-8"?>

<!-- generated on 2025-09-12 19:32:14 by Eclipse SUMO netedit Version 1.22.0
-->

<routes xmlns:xsi="http://www.w3.org/2001/XMLSchema-instance" xsi:noNamespaceSchemaLocation="http://sumo.dlr.de/xsd/routes_file.xsd">
    <!-- Routes -->
    <route id="r_1" edges="E0 E1 E2 E3 E4 E5 E6 E7 E8 E9 E10 E18 E19"/>
    <route id="r_1_rev" edges="-E19 -E18 -E10 -E9 -E8 -E7 -E6 -E5 -E4 -E3 -E2 -E1 -E0"/>
    <!-- Vehicles, persons and containers (sorted by depart) -->
    <trip id="t_0" depart="0.00" from="E0" to="E19" via="E1 E2 E3 E4 E5 E6 E7 E8 E9 E10 E18"/>
    <trip id="t_1" depart="5.00" from="E0" to="E19" via="E1 E2 E3 E4 E5 E6 E7 E8 E9 E10 E18"/>
    <trip id="t_2" depart="10.00" from="E0" to="E19" via="E1 E2 E3 E4 E5 E6 E7 E8 E9 E10 E18"/>
    <trip id="t_3" depart="15.00" from="E0" to="E19" via="E1 E2 E3 E4 E5 E6 E7 E8 E9 E10 E18"/>
    <trip id="t_4" depart="20.00" from="E0" to="E19" via="E1 E2 E3 E4 E5 E6 E7 E8 E9 E10 E18"/>
    <trip id="t_5" depart="25.00" from="E0" to="E19" via="E1 E2 E3 E4 E5 E6 E7 E8 E9 E10 E18"/>
    <trip id="t_6" depart="30.00" from="E0" to="E19" via="E1 E2 E3 E4 E5 E6 E7 E8 E9 E10 E18"/>
    <trip id="t_7" depart="35.00" from="E0" to="E19" via="E1 E2 E3 E4 E5 E6 E7 E8 E9 E10 E18"/>
    <trip id="t_8" depart="40.00" from="E0" to="E19" via="E1 E2 E3 E4 E5 E6 E7 E8 E9 E10 E18"/>
    <trip id="t_9" depart="45.00" from="E0" to="E19" via="E1 E2 E3 E4 E5 E6 E7 E8 E9 E10 E18"/>
    <trip id="t_10" depart="50.00" from="E0" to="E19" via="E1 E2 E3 E4 E5 E6 E7 E8 E9 E10 E18"/>

    <trip id="t_r0" depart="55.00" color="0,15,255" from="-E19" to="-E0" via="-E18 -E10 -E9 -E8 -E7 -E6 -E5 -E4 -E3 -E2 -E1"/>
    <trip id="t_r1" depart="60.00" color="0,15,255" from="-E19" to="-E0" via="-E18 -E10 -E9 -E8 -E7 -E6 -E5 -E4 -E3 -E2 -E1"/>
    <trip id="t_r2" depart="65.00" color="0,15,255" from="-E19" to="-E0" via="-E18 -E10 -E9 -E8 -E7 -E6 -E5 -E4 -E3 -E2 -E1"/>
    <trip id="t_r3" depart="70.00" color="0,15,255" from="-E19" to="-E0" via="-E18 -E10 -E9 -E8 -E7 -E6 -E5 -E4 -E3 -E2 -E1"/>
    <trip id="t_r4" depart="75.00" color="0,15,255" from="-E19" to="-E0" via="-E18 -E10 -E9 -E8 -E7 -E6 -E5 -E4 -E3 -E2 -E1"/>
    <trip id="t_r5" depart="80.00" color="0,15,255" from="-E19" to="-E0" via="-E18 -E10 -E9 -E8 -E7 -E6 -E5 -E4 -E3 -E2 -E1"/>
    <trip id="t_r6" depart="85.00" color="0,15,255" from="-E19" to="-E0" via="-E18 -E10 -E9 -E8 -E7 -E6 -E5 -E4 -E3 -E2 -E1"/>
    <trip id="t_r7" depart="90.00" color="0,15,255" from="-E19" to="-E0" via="-E18 -E10 -E9 -E8 -E7 -E6 -E5 -E4 -E3 -E2 -E1"/>
    <trip id="t_r8" depart="95.00" color="0,15,255" from="-E19" to="-E0" via="-E18 -E10 -E9 -E8 -E7 -E6 -E5 -E4 -E3 -E2 -E1"/>
    <trip id="t_r9" depart="100.00" color="0,15,255" from="-E19" to="-E0" via="-E18 -E10 -E9 -E8 -E7 -E6 -E5 -E4 -E3 -E2 -E1"/>

</routes>
