<?xml version="1.0" encoding="UTF-8"?>

<net version="1.20" junctionCornerDetail="5" limitTurnSpeed="5.50" xmlns:xsi="http://www.w3.org/2001/XMLSchema-instance" xsi:noNamespaceSchemaLocation="http://sumo.dlr.de/xsd/net_file.xsd">

    <location netOffset="0.00,0.00" convBoundary="-100.00,-200.00,200.00,100.00" origBoundary="-10000000000.00,-10000000000.00,10000000000.00,10000000000.00" projParameter="!"/>

    <edge id=":J0_0" function="internal">
    <lane id=":J0_0_0" index="0" speed="6.08" length="7.74" width="6.4" shape="-96.80,101.60 -98.90,101.30 -100.40,100.40 -101.30,98.90 -101.60,96.80"/>
    </edge>
    <edge id=":J0_1" function="internal">
    <lane id=":J0_1_0" index="0" speed="3.90" length="2.58" width="6.4" shape="-98.40,96.80 -98.30,97.50 -98.00,98.00 -97.50,98.30 -96.80,98.40"/>
    </edge>
    <edge id=":J1_0" function="internal">
        <lane id=":J1_0_0" index="0" speed="13.89" length="14.40" shape="7.20,101.60 -7.20,101.60"/>
    </edge>
    <edge id=":J1_1" function="internal">
        <lane id=":J1_1_0" index="0" speed="8.00" length="4.07" shape="7.20,101.60 3.35,101.05 3.20,100.96"/>
    </edge>
    <edge id=":J1_6" function="internal">
        <lane id=":J1_6_0" index="0" speed="8.00" length="10.13" shape="3.20,100.96 0.60,99.40 -1.05,96.65 -1.60,92.80"/>
    </edge>
    <edge id=":J1_2" function="internal">
        <lane id=":J1_2_0" index="0" speed="6.51" length="9.03" shape="1.60,92.80 1.95,95.25 3.00,97.00 4.75,98.05 7.20,98.40"/>
    </edge>
    <edge id=":J1_3" function="internal">
        <lane id=":J1_3_0" index="0" speed="8.00" length="14.19" shape="1.60,92.80 1.05,96.65 -0.60,99.40 -3.35,101.05 -7.20,101.60"/>
    </edge>
    <edge id=":J1_4" function="internal">
        <lane id=":J1_4_0" index="0" speed="6.51" length="9.03" shape="-7.20,98.40 -4.75,98.05 -3.00,97.00 -1.95,95.25 -1.60,92.80"/>
    </edge>
    <edge id=":J1_5" function="internal">
        <lane id=":J1_5_0" index="0" speed="13.89" length="14.40" shape="-7.20,98.40 7.20,98.40"/>
    </edge>
    <edge id=":J10_0" function="internal">
        <lane id=":J10_0_0" index="0" speed="13.89" length="14.40" shape="-101.60,-92.80 -101.60,-107.20"/>
    </edge>
    <edge id=":J10_1" function="internal">
        <lane id=":J10_1_0" index="0" speed="8.00" length="4.07" shape="-101.60,-92.80 -101.05,-96.65 -100.96,-96.80"/>
    </edge>
    <edge id=":J10_6" function="internal">
        <lane id=":J10_6_0" index="0" speed="8.00" length="10.13" shape="-100.96,-96.80 -99.40,-99.40 -96.65,-101.05 -92.80,-101.60"/>
    </edge>
    <edge id=":J10_2" function="internal">
        <lane id=":J10_2_0" index="0" speed="6.51" length="9.03" shape="-92.80,-98.40 -95.25,-98.05 -97.00,-97.00 -98.05,-95.25 -98.40,-92.80"/>
    </edge>
    <edge id=":J10_3" function="internal">
        <lane id=":J10_3_0" index="0" speed="8.00" length="14.19" shape="-92.80,-98.40 -96.65,-98.95 -99.40,-100.60 -101.05,-103.35 -101.60,-107.20"/>
    </edge>
    <edge id=":J10_4" function="internal">
        <lane id=":J10_4_0" index="0" speed="6.51" length="9.03" shape="-98.40,-107.20 -98.05,-104.75 -97.00,-103.00 -95.25,-101.95 -92.80,-101.60"/>
    </edge>
    <edge id=":J10_5" function="internal">
        <lane id=":J10_5_0" index="0" speed="13.89" length="14.40" shape="-98.40,-107.20 -98.40,-92.80"/>
    </edge>
    <edge id=":J11_0" function="internal">
        <lane id=":J11_0_0" index="0" speed="13.89" length="14.40" shape="-101.60,7.20 -101.60,-7.20"/>
    </edge>
    <edge id=":J11_1" function="internal">
        <lane id=":J11_1_0" index="0" speed="8.00" length="4.07" shape="-101.60,7.20 -101.05,3.35 -100.96,3.20"/>
    </edge>
    <edge id=":J11_6" function="internal">
        <lane id=":J11_6_0" index="0" speed="8.00" length="10.13" shape="-100.96,3.20 -99.40,0.60 -96.65,-1.05 -92.80,-1.60"/>
    </edge>
    <edge id=":J11_2" function="internal">
        <lane id=":J11_2_0" index="0" speed="6.51" length="9.03" shape="-92.80,1.60 -95.25,1.95 -97.00,3.00 -98.05,4.75 -98.40,7.20"/>
    </edge>
    <edge id=":J11_3" function="internal">
        <lane id=":J11_3_0" index="0" speed="8.00" length="14.19" shape="-92.80,1.60 -96.65,1.05 -99.40,-0.60 -101.05,-3.35 -101.60,-7.20"/>
    </edge>
    <edge id=":J11_4" function="internal">
        <lane id=":J11_4_0" index="0" speed="6.51" length="9.03" shape="-98.40,-7.20 -98.05,-4.75 -97.00,-3.00 -95.25,-1.95 -92.80,-1.60"/>
    </edge>
    <edge id=":J11_5" function="internal">
        <lane id=":J11_5_0" index="0" speed="13.89" length="14.40" shape="-98.40,-7.20 -98.40,7.20"/>
    </edge>
    <edge id=":J12_0" function="internal">
        <lane id=":J12_0_0" index="0" speed="6.51" length="9.03" shape="-1.60,7.20 -1.95,4.75 -3.00,3.00 -4.75,1.95 -7.20,1.60"/>
    </edge>
    <edge id=":J12_1" function="internal">
        <lane id=":J12_1_0" index="0" speed="13.89" length="14.40" shape="-1.60,7.20 -1.60,-7.20"/>
    </edge>
    <edge id=":J12_2" function="internal">
        <lane id=":J12_2_0" index="0" speed="8.00" length="4.07" shape="-1.60,7.20 -1.05,3.35 -0.96,3.20"/>
    </edge>
    <edge id=":J12_12" function="internal">
        <lane id=":J12_12_0" index="0" speed="8.00" length="10.13" shape="-0.96,3.20 0.60,0.60 3.35,-1.05 7.20,-1.60"/>
    </edge>
    <edge id=":J12_3" function="internal">
        <lane id=":J12_3_0" index="0" speed="6.51" length="9.03" shape="7.20,1.60 4.75,1.95 3.00,3.00 1.95,4.75 1.60,7.20"/>
    </edge>
    <edge id=":J12_4" function="internal">
        <lane id=":J12_4_0" index="0" speed="13.89" length="14.40" shape="7.20,1.60 -7.20,1.60"/>
    </edge>
    <edge id=":J12_5" function="internal">
        <lane id=":J12_5_0" index="0" speed="8.00" length="14.19" shape="7.20,1.60 3.35,1.05 0.60,-0.60 -1.05,-3.35 -1.60,-7.20"/>
    </edge>
    <edge id=":J12_6" function="internal">
        <lane id=":J12_6_0" index="0" speed="6.51" length="9.03" shape="1.60,-7.20 1.95,-4.75 3.00,-3.00 4.75,-1.95 7.20,-1.60"/>
    </edge>
    <edge id=":J12_7" function="internal">
        <lane id=":J12_7_0" index="0" speed="13.89" length="14.40" shape="1.60,-7.20 1.60,7.20"/>
    </edge>
    <edge id=":J12_8" function="internal">
        <lane id=":J12_8_0" index="0" speed="8.00" length="4.07" shape="1.60,-7.20 1.05,-3.35 0.96,-3.20"/>
    </edge>
    <edge id=":J12_13" function="internal">
        <lane id=":J12_13_0" index="0" speed="8.00" length="10.13" shape="0.96,-3.20 -0.60,-0.60 -3.35,1.05 -7.20,1.60"/>
    </edge>
    <edge id=":J12_9" function="internal">
        <lane id=":J12_9_0" index="0" speed="6.51" length="9.03" shape="-7.20,-1.60 -4.75,-1.95 -3.00,-3.00 -1.95,-4.75 -1.60,-7.20"/>
    </edge>
    <edge id=":J12_10" function="internal">
        <lane id=":J12_10_0" index="0" speed="13.89" length="14.40" shape="-7.20,-1.60 7.20,-1.60"/>
    </edge>
    <edge id=":J12_11" function="internal">
        <lane id=":J12_11_0" index="0" speed="8.00" length="14.19" shape="-7.20,-1.60 -3.35,-1.05 -0.60,0.60 1.05,3.35 1.60,7.20"/>
    </edge>
    <edge id=":J13_0" function="internal">
        <lane id=":J13_0_0" index="0" speed="6.51" length="9.03" shape="-1.60,-92.80 -1.95,-95.25 -3.00,-97.00 -4.75,-98.05 -7.20,-98.40"/>
    </edge>
    <edge id=":J13_1" function="internal">
        <lane id=":J13_1_0" index="0" speed="13.89" length="14.40" shape="-1.60,-92.80 -1.60,-107.20"/>
    </edge>
    <edge id=":J13_2" function="internal">
        <lane id=":J13_2_0" index="0" speed="8.00" length="4.07" shape="-1.60,-92.80 -1.05,-96.65 -0.96,-96.80"/>
    </edge>
    <edge id=":J13_12" function="internal">
        <lane id=":J13_12_0" index="0" speed="8.00" length="10.13" shape="-0.96,-96.80 0.60,-99.40 3.35,-101.05 7.20,-101.60"/>
    </edge>
    <edge id=":J13_3" function="internal">
        <lane id=":J13_3_0" index="0" speed="6.51" length="9.03" shape="7.20,-98.40 4.75,-98.05 3.00,-97.00 1.95,-95.25 1.60,-92.80"/>
    </edge>
    <edge id=":J13_4" function="internal">
        <lane id=":J13_4_0" index="0" speed="13.89" length="14.40" shape="7.20,-98.40 -7.20,-98.40"/>
    </edge>
    <edge id=":J13_5" function="internal">
        <lane id=":J13_5_0" index="0" speed="8.00" length="14.19" shape="7.20,-98.40 3.35,-98.95 0.60,-100.60 -1.05,-103.35 -1.60,-107.20"/>
    </edge>
    <edge id=":J13_6" function="internal">
        <lane id=":J13_6_0" index="0" speed="6.51" length="9.03" shape="1.60,-107.20 1.95,-104.75 3.00,-103.00 4.75,-101.95 7.20,-101.60"/>
    </edge>
    <edge id=":J13_7" function="internal">
        <lane id=":J13_7_0" index="0" speed="13.89" length="14.40" shape="1.60,-107.20 1.60,-92.80"/>
    </edge>
    <edge id=":J13_8" function="internal">
        <lane id=":J13_8_0" index="0" speed="8.00" length="4.07" shape="1.60,-107.20 1.05,-103.35 0.96,-103.20"/>
    </edge>
    <edge id=":J13_13" function="internal">
        <lane id=":J13_13_0" index="0" speed="8.00" length="10.13" shape="0.96,-103.20 -0.60,-100.60 -3.35,-98.95 -7.20,-98.40"/>
    </edge>
    <edge id=":J13_9" function="internal">
        <lane id=":J13_9_0" index="0" speed="6.51" length="9.03" shape="-7.20,-101.60 -4.75,-101.95 -3.00,-103.00 -1.95,-104.75 -1.60,-107.20"/>
    </edge>
    <edge id=":J13_10" function="internal">
        <lane id=":J13_10_0" index="0" speed="13.89" length="14.40" shape="-7.20,-101.60 7.20,-101.60"/>
    </edge>
    <edge id=":J13_11" function="internal">
        <lane id=":J13_11_0" index="0" speed="8.00" length="14.19" shape="-7.20,-101.60 -3.35,-101.05 -0.60,-99.40 1.05,-96.65 1.60,-92.80"/>
    </edge>
    <edge id=":J14_0" function="internal">
        <lane id=":J14_0_0" index="0" speed="6.51" length="9.03" shape="98.40,7.20 98.05,4.75 97.00,3.00 95.25,1.95 92.80,1.60"/>
    </edge>
    <edge id=":J14_1" function="internal">
        <lane id=":J14_1_0" index="0" speed="13.89" length="14.40" shape="98.40,7.20 98.40,-7.20"/>
    </edge>
    <edge id=":J14_2" function="internal">
        <lane id=":J14_2_0" index="0" speed="8.00" length="4.07" shape="98.40,7.20 98.95,3.35 99.04,3.20"/>
    </edge>
    <edge id=":J14_12" function="internal">
        <lane id=":J14_12_0" index="0" speed="8.00" length="10.13" shape="99.04,3.20 100.60,0.60 103.35,-1.05 107.20,-1.60"/>
    </edge>
    <edge id=":J14_3" function="internal">
        <lane id=":J14_3_0" index="0" speed="6.51" length="9.03" shape="107.20,1.60 104.75,1.95 103.00,3.00 101.95,4.75 101.60,7.20"/>
    </edge>
    <edge id=":J14_4" function="internal">
        <lane id=":J14_4_0" index="0" speed="13.89" length="14.40" shape="107.20,1.60 92.80,1.60"/>
    </edge>
    <edge id=":J14_5" function="internal">
        <lane id=":J14_5_0" index="0" speed="8.00" length="14.19" shape="107.20,1.60 103.35,1.05 100.60,-0.60 98.95,-3.35 98.40,-7.20"/>
    </edge>
    <edge id=":J14_6" function="internal">
        <lane id=":J14_6_0" index="0" speed="6.51" length="9.03" shape="101.60,-7.20 101.95,-4.75 103.00,-3.00 104.75,-1.95 107.20,-1.60"/>
    </edge>
    <edge id=":J14_7" function="internal">
        <lane id=":J14_7_0" index="0" speed="13.89" length="14.40" shape="101.60,-7.20 101.60,7.20"/>
    </edge>
    <edge id=":J14_8" function="internal">
        <lane id=":J14_8_0" index="0" speed="8.00" length="4.07" shape="101.60,-7.20 101.05,-3.35 100.96,-3.20"/>
    </edge>
    <edge id=":J14_13" function="internal">
        <lane id=":J14_13_0" index="0" speed="8.00" length="10.13" shape="100.96,-3.20 99.40,-0.60 96.65,1.05 92.80,1.60"/>
    </edge>
    <edge id=":J14_9" function="internal">
        <lane id=":J14_9_0" index="0" speed="6.51" length="9.03" shape="92.80,-1.60 95.25,-1.95 97.00,-3.00 98.05,-4.75 98.40,-7.20"/>
    </edge>
    <edge id=":J14_10" function="internal">
        <lane id=":J14_10_0" index="0" speed="13.89" length="14.40" shape="92.80,-1.60 107.20,-1.60"/>
    </edge>
    <edge id=":J14_11" function="internal">
        <lane id=":J14_11_0" index="0" speed="8.00" length="14.19" shape="92.80,-1.60 96.65,-1.05 99.40,0.60 101.05,3.35 101.60,7.20"/>
    </edge>
    <edge id=":J15_0" function="internal">
        <lane id=":J15_0_0" index="0" speed="6.51" length="9.03" shape="98.40,-92.80 98.05,-95.25 97.00,-97.00 95.25,-98.05 92.80,-98.40"/>
    </edge>
    <edge id=":J15_1" function="internal">
        <lane id=":J15_1_0" index="0" speed="13.89" length="14.40" shape="98.40,-92.80 98.40,-107.20"/>
    </edge>
    <edge id=":J15_2" function="internal">
        <lane id=":J15_2_0" index="0" speed="8.00" length="4.07" shape="98.40,-92.80 98.95,-96.65 99.04,-96.80"/>
    </edge>
    <edge id=":J15_12" function="internal">
        <lane id=":J15_12_0" index="0" speed="8.00" length="10.13" shape="99.04,-96.80 100.60,-99.40 103.35,-101.05 107.20,-101.60"/>
    </edge>
    <edge id=":J15_3" function="internal">
        <lane id=":J15_3_0" index="0" speed="6.51" length="9.03" shape="107.20,-98.40 104.75,-98.05 103.00,-97.00 101.95,-95.25 101.60,-92.80"/>
    </edge>
    <edge id=":J15_4" function="internal">
        <lane id=":J15_4_0" index="0" speed="13.89" length="14.40" shape="107.20,-98.40 92.80,-98.40"/>
    </edge>
    <edge id=":J15_5" function="internal">
        <lane id=":J15_5_0" index="0" speed="8.00" length="14.19" shape="107.20,-98.40 103.35,-98.95 100.60,-100.60 98.95,-103.35 98.40,-107.20"/>
    </edge>
    <edge id=":J15_6" function="internal">
        <lane id=":J15_6_0" index="0" speed="6.51" length="9.03" shape="101.60,-107.20 101.95,-104.75 103.00,-103.00 104.75,-101.95 107.20,-101.60"/>
    </edge>
    <edge id=":J15_7" function="internal">
        <lane id=":J15_7_0" index="0" speed="13.89" length="14.40" shape="101.60,-107.20 101.60,-92.80"/>
    </edge>
    <edge id=":J15_8" function="internal">
        <lane id=":J15_8_0" index="0" speed="8.00" length="4.07" shape="101.60,-107.20 101.05,-103.35 100.96,-103.20"/>
    </edge>
    <edge id=":J15_13" function="internal">
        <lane id=":J15_13_0" index="0" speed="8.00" length="10.13" shape="100.96,-103.20 99.40,-100.60 96.65,-98.95 92.80,-98.40"/>
    </edge>
    <edge id=":J15_9" function="internal">
        <lane id=":J15_9_0" index="0" speed="6.51" length="9.03" shape="92.80,-101.60 95.25,-101.95 97.00,-103.00 98.05,-104.75 98.40,-107.20"/>
    </edge>
    <edge id=":J15_10" function="internal">
        <lane id=":J15_10_0" index="0" speed="13.89" length="14.40" shape="92.80,-101.60 107.20,-101.60"/>
    </edge>
    <edge id=":J15_11" function="internal">
        <lane id=":J15_11_0" index="0" speed="8.00" length="14.19" shape="92.80,-101.60 96.65,-101.05 99.40,-99.40 101.05,-96.65 101.60,-92.80"/>
    </edge>
    <edge id=":J2_0" function="internal">
        <lane id=":J2_0_0" index="0" speed="13.89" length="14.40" shape="107.20,101.60 92.80,101.60"/>
    </edge>
    <edge id=":J2_1" function="internal">
        <lane id=":J2_1_0" index="0" speed="8.00" length="4.07" shape="107.20,101.60 103.35,101.05 103.20,100.96"/>
    </edge>
    <edge id=":J2_6" function="internal">
        <lane id=":J2_6_0" index="0" speed="8.00" length="10.13" shape="103.20,100.96 100.60,99.40 98.95,96.65 98.40,92.80"/>
    </edge>
    <edge id=":J2_2" function="internal">
        <lane id=":J2_2_0" index="0" speed="6.51" length="9.03" shape="101.60,92.80 101.95,95.25 103.00,97.00 104.75,98.05 107.20,98.40"/>
    </edge>
    <edge id=":J2_3" function="internal">
        <lane id=":J2_3_0" index="0" speed="8.00" length="14.19" shape="101.60,92.80 101.05,96.65 99.40,99.40 96.65,101.05 92.80,101.60"/>
    </edge>
    <edge id=":J2_4" function="internal">
        <lane id=":J2_4_0" index="0" speed="6.51" length="9.03" shape="92.80,98.40 95.25,98.05 97.00,97.00 98.05,95.25 98.40,92.80"/>
    </edge>
    <edge id=":J2_5" function="internal">
        <lane id=":J2_5_0" index="0" speed="13.89" length="14.40" shape="92.80,98.40 107.20,98.40"/>
    </edge>
    <edge id=":J3_0" function="internal">
        <lane id=":J3_0_0" index="0" speed="6.08" length="7.74" shape="201.60,96.80 201.30,98.90 200.40,100.40 198.90,101.30 196.80,101.60"/>
    </edge>
    <edge id=":J3_1" function="internal">
        <lane id=":J3_1_0" index="0" speed="3.90" length="2.58" shape="196.80,98.40 197.50,98.30 198.00,98.00 198.30,97.50 198.40,96.80"/>
    </edge>
    <edge id=":J4_0" function="internal">
        <lane id=":J4_0_0" index="0" speed="6.51" length="9.03" shape="198.40,7.20 198.05,4.75 197.00,3.00 195.25,1.95 192.80,1.60"/>
    </edge>
    <edge id=":J4_1" function="internal">
        <lane id=":J4_1_0" index="0" speed="13.89" length="14.40" shape="198.40,7.20 198.40,-7.20"/>
    </edge>
    <edge id=":J4_2" function="internal">
        <lane id=":J4_2_0" index="0" speed="13.89" length="14.40" shape="201.60,-7.20 201.60,7.20"/>
    </edge>
    <edge id=":J4_3" function="internal">
        <lane id=":J4_3_0" index="0" speed="8.00" length="4.07" shape="201.60,-7.20 201.05,-3.35 200.96,-3.20"/>
    </edge>
    <edge id=":J4_6" function="internal">
        <lane id=":J4_6_0" index="0" speed="8.00" length="10.13" shape="200.96,-3.20 199.40,-0.60 196.65,1.05 192.80,1.60"/>
    </edge>
    <edge id=":J4_4" function="internal">
        <lane id=":J4_4_0" index="0" speed="6.51" length="9.03" shape="192.80,-1.60 195.25,-1.95 197.00,-3.00 198.05,-4.75 198.40,-7.20"/>
    </edge>
    <edge id=":J4_5" function="internal">
        <lane id=":J4_5_0" index="0" speed="8.00" length="14.19" shape="192.80,-1.60 196.65,-1.05 199.40,0.60 201.05,3.35 201.60,7.20"/>
    </edge>
    <edge id=":J5_0" function="internal">
        <lane id=":J5_0_0" index="0" speed="6.51" length="9.03" shape="198.40,-92.80 198.05,-95.25 197.00,-97.00 195.25,-98.05 192.80,-98.40"/>
    </edge>
    <edge id=":J5_1" function="internal">
        <lane id=":J5_1_0" index="0" speed="13.89" length="14.40" shape="198.40,-92.80 198.40,-107.20"/>
    </edge>
    <edge id=":J5_2" function="internal">
        <lane id=":J5_2_0" index="0" speed="13.89" length="14.40" shape="201.60,-107.20 201.60,-92.80"/>
    </edge>
    <edge id=":J5_3" function="internal">
        <lane id=":J5_3_0" index="0" speed="8.00" length="4.07" shape="201.60,-107.20 201.05,-103.35 200.96,-103.20"/>
    </edge>
    <edge id=":J5_6" function="internal">
        <lane id=":J5_6_0" index="0" speed="8.00" length="10.13" shape="200.96,-103.20 199.40,-100.60 196.65,-98.95 192.80,-98.40"/>
    </edge>
    <edge id=":J5_4" function="internal">
        <lane id=":J5_4_0" index="0" speed="6.51" length="9.03" shape="192.80,-101.60 195.25,-101.95 197.00,-103.00 198.05,-104.75 198.40,-107.20"/>
    </edge>
    <edge id=":J5_5" function="internal">
        <lane id=":J5_5_0" index="0" speed="8.00" length="14.19" shape="192.80,-101.60 196.65,-101.05 199.40,-99.40 201.05,-96.65 201.60,-92.80"/>
    </edge>
    <edge id=":J6_0" function="internal">
        <lane id=":J6_0_0" index="0" speed="3.90" length="2.58" shape="198.40,-196.80 198.30,-197.50 198.00,-198.00 197.50,-198.30 196.80,-198.40"/>
    </edge>
    <edge id=":J6_1" function="internal">
        <lane id=":J6_1_0" index="0" speed="6.08" length="7.74" shape="196.80,-201.60 198.90,-201.30 200.40,-200.40 201.30,-198.90 201.60,-196.80"/>
    </edge>
    <edge id=":J7_0" function="internal">
        <lane id=":J7_0_0" index="0" speed="6.51" length="9.03" shape="98.40,-192.80 98.05,-195.25 97.00,-197.00 95.25,-198.05 92.80,-198.40"/>
    </edge>
    <edge id=":J7_1" function="internal">
        <lane id=":J7_1_0" index="0" speed="8.00" length="14.19" shape="98.40,-192.80 98.95,-196.65 100.60,-199.40 103.35,-201.05 107.20,-201.60"/>
    </edge>
    <edge id=":J7_2" function="internal">
        <lane id=":J7_2_0" index="0" speed="6.51" length="9.03" shape="107.20,-198.40 104.75,-198.05 103.00,-197.00 101.95,-195.25 101.60,-192.80"/>
    </edge>
    <edge id=":J7_3" function="internal">
        <lane id=":J7_3_0" index="0" speed="13.89" length="14.40" shape="107.20,-198.40 92.80,-198.40"/>
    </edge>
    <edge id=":J7_4" function="internal">
        <lane id=":J7_4_0" index="0" speed="13.89" length="14.40" shape="92.80,-201.60 107.20,-201.60"/>
    </edge>
    <edge id=":J7_5" function="internal">
        <lane id=":J7_5_0" index="0" speed="8.00" length="4.07" shape="92.80,-201.60 96.65,-201.05 96.80,-200.96"/>
    </edge>
    <edge id=":J7_6" function="internal">
        <lane id=":J7_6_0" index="0" speed="8.00" length="10.13" shape="96.80,-200.96 99.40,-199.40 101.05,-196.65 101.60,-192.80"/>
    </edge>
    <edge id=":J8_0" function="internal">
        <lane id=":J8_0_0" index="0" speed="6.51" length="9.03" shape="-1.60,-192.80 -1.95,-195.25 -3.00,-197.00 -4.75,-198.05 -7.20,-198.40"/>
    </edge>
    <edge id=":J8_1" function="internal">
        <lane id=":J8_1_0" index="0" speed="8.00" length="14.19" shape="-1.60,-192.80 -1.05,-196.65 0.60,-199.40 3.35,-201.05 7.20,-201.60"/>
    </edge>
    <edge id=":J8_2" function="internal">
        <lane id=":J8_2_0" index="0" speed="6.51" length="9.03" shape="7.20,-198.40 4.75,-198.05 3.00,-197.00 1.95,-195.25 1.60,-192.80"/>
    </edge>
    <edge id=":J8_3" function="internal">
        <lane id=":J8_3_0" index="0" speed="13.89" length="14.40" shape="7.20,-198.40 -7.20,-198.40"/>
    </edge>
    <edge id=":J8_4" function="internal">
        <lane id=":J8_4_0" index="0" speed="13.89" length="14.40" shape="-7.20,-201.60 7.20,-201.60"/>
    </edge>
    <edge id=":J8_5" function="internal">
        <lane id=":J8_5_0" index="0" speed="8.00" length="4.07" shape="-7.20,-201.60 -3.35,-201.05 -3.20,-200.96"/>
    </edge>
    <edge id=":J8_6" function="internal">
        <lane id=":J8_6_0" index="0" speed="8.00" length="10.13" shape="-3.20,-200.96 -0.60,-199.40 1.05,-196.65 1.60,-192.80"/>
    </edge>
    <edge id=":J9_0" function="internal">
        <lane id=":J9_0_0" index="0" speed="6.08" length="7.74" shape="-101.60,-196.80 -101.30,-198.90 -100.40,-200.40 -98.90,-201.30 -96.80,-201.60"/>
    </edge>
    <edge id=":J9_1" function="internal">
        <lane id=":J9_1_0" index="0" speed="3.90" length="2.58" shape="-96.80,-198.40 -97.50,-198.30 -98.00,-198.00 -98.30,-197.50 -98.40,-196.80"/>
    </edge>

    <edge id="-E0" from="J1" to="J0" priority="-1">
        <lane id="-E0_0" index="0" speed="13.89" length="89.60" shape="-7.20,101.60 -96.80,101.60"/>
    </edge>
    <edge id="-E1" from="J2" to="J1" priority="-1">
        <lane id="-E1_0" index="0" speed="13.89" length="85.60" shape="92.80,101.60 7.20,101.60"/>
    </edge>
    <edge id="-E10" from="J11" to="J10" priority="-1">
        <lane id="-E10_0" index="0" speed="13.89" length="85.60" shape="-101.60,-7.20 -101.60,-92.80"/>
    </edge>
    <edge id="-E11" from="J0" to="J11" priority="-1">
        <lane id="-E11_0" index="0" speed="13.89" length="89.60" shape="-101.60,96.80 -101.60,7.20"/>
    </edge>
    <edge id="-E12" from="J12" to="J1" priority="-1">
        <lane id="-E12_0" index="0" speed="13.89" length="85.60" shape="1.60,7.20 1.60,92.80"/>
    </edge>
    <edge id="-E13" from="J13" to="J12" priority="-1">
        <lane id="-E13_0" index="0" speed="13.89" length="85.60" shape="1.60,-92.80 1.60,-7.20"/>
    </edge>
    <edge id="-E14" from="J8" to="J13" priority="-1">
        <lane id="-E14_0" index="0" speed="13.89" length="85.60" shape="1.60,-192.80 1.60,-107.20"/>
    </edge>
    <edge id="-E15" from="J14" to="J2" priority="-1">
        <lane id="-E15_0" index="0" speed="13.89" length="85.60" shape="101.60,7.20 101.60,92.80"/>
    </edge>
    <edge id="-E16" from="J15" to="J14" priority="-1">
        <lane id="-E16_0" index="0" speed="13.89" length="85.60" shape="101.60,-92.80 101.60,-7.20"/>
    </edge>
    <edge id="-E17" from="J7" to="J15" priority="-1">
        <lane id="-E17_0" index="0" speed="13.89" length="85.60" shape="101.60,-192.80 101.60,-107.20"/>
    </edge>
    <edge id="-E18" from="J12" to="J11" priority="-1">
        <lane id="-E18_0" index="0" speed="13.89" length="85.60" shape="-7.20,1.60 -92.80,1.60"/>
    </edge>
    <edge id="-E19" from="J14" to="J12" priority="-1">
        <lane id="-E19_0" index="0" speed="13.89" length="85.60" shape="92.80,1.60 7.20,1.60"/>
    </edge>
    <edge id="-E2" from="J3" to="J2" priority="-1">
        <lane id="-E2_0" index="0" speed="13.89" length="89.60" shape="196.80,101.60 107.20,101.60"/>
    </edge>
    <edge id="-E20" from="J4" to="J14" priority="-1">
        <lane id="-E20_0" index="0" speed="13.89" length="85.60" shape="192.80,1.60 107.20,1.60"/>
    </edge>
    <edge id="-E21" from="J13" to="J10" priority="-1">
        <lane id="-E21_0" index="0" speed="13.89" length="85.60" shape="-7.20,-98.40 -92.80,-98.40"/>
    </edge>
    <edge id="-E22" from="J15" to="J13" priority="-1">
        <lane id="-E22_0" index="0" speed="13.89" length="85.60" shape="92.80,-98.40 7.20,-98.40"/>
    </edge>
    <edge id="-E23" from="J5" to="J15" priority="-1">
        <lane id="-E23_0" index="0" speed="13.89" length="85.60" shape="192.80,-98.40 107.20,-98.40"/>
    </edge>
    <edge id="-E3" from="J4" to="J3" priority="-1">
        <lane id="-E3_0" index="0" speed="13.89" length="89.60" shape="201.60,7.20 201.60,96.80"/>
    </edge>
    <edge id="-E4" from="J5" to="J4" priority="-1">
        <lane id="-E4_0" index="0" speed="13.89" length="85.60" shape="201.60,-92.80 201.60,-7.20"/>
    </edge>
    <edge id="-E5" from="J6" to="J5" priority="-1">
        <lane id="-E5_0" index="0" speed="13.89" length="89.60" shape="201.60,-196.80 201.60,-107.20"/>
    </edge>
    <edge id="-E6" from="J7" to="J6" priority="-1">
        <lane id="-E6_0" index="0" speed="13.89" length="89.60" shape="107.20,-201.60 196.80,-201.60"/>
    </edge>
    <edge id="-E7" from="J8" to="J7" priority="-1">
        <lane id="-E7_0" index="0" speed="13.89" length="85.60" shape="7.20,-201.60 92.80,-201.60"/>
    </edge>
    <edge id="-E8" from="J9" to="J8" priority="-1">
        <lane id="-E8_0" index="0" speed="13.89" length="89.60" shape="-96.80,-201.60 -7.20,-201.60"/>
    </edge>
    <edge id="-E9" from="J10" to="J9" priority="-1">
        <lane id="-E9_0" index="0" speed="13.89" length="89.60" shape="-101.60,-107.20 -101.60,-196.80"/>
    </edge>
    <edge id="E0" from="J0" to="J1" priority="-1">
        <lane id="E0_0" index="0" speed="13.89" length="89.60" shape="-96.80,98.40 -7.20,98.40"/>
    </edge>
    <edge id="E1" from="J1" to="J2" priority="-1">
        <lane id="E1_0" index="0" speed="13.89" length="85.60" shape="7.20,98.40 92.80,98.40"/>
    </edge>
    <edge id="E10" from="J10" to="J11" priority="-1">
        <lane id="E10_0" index="0" speed="13.89" length="85.60" shape="-98.40,-92.80 -98.40,-7.20"/>
    </edge>
    <edge id="E11" from="J11" to="J0" priority="-1">
        <lane id="E11_0" index="0" speed="13.89" length="89.60" shape="-98.40,7.20 -98.40,96.80"/>
    </edge>
    <edge id="E12" from="J1" to="J12" priority="-1">
        <lane id="E12_0" index="0" speed="13.89" length="85.60" shape="-1.60,92.80 -1.60,7.20"/>
    </edge>
    <edge id="E13" from="J12" to="J13" priority="-1">
        <lane id="E13_0" index="0" speed="13.89" length="85.60" shape="-1.60,-7.20 -1.60,-92.80"/>
    </edge>
    <edge id="E14" from="J13" to="J8" priority="-1">
        <lane id="E14_0" index="0" speed="13.89" length="85.60" shape="-1.60,-107.20 -1.60,-192.80"/>
    </edge>
    <edge id="E15" from="J2" to="J14" priority="-1">
        <lane id="E15_0" index="0" speed="13.89" length="85.60" shape="98.40,92.80 98.40,7.20"/>
    </edge>
    <edge id="E16" from="J14" to="J15" priority="-1">
        <lane id="E16_0" index="0" speed="13.89" length="85.60" shape="98.40,-7.20 98.40,-92.80"/>
    </edge>
    <edge id="E17" from="J15" to="J7" priority="-1">
        <lane id="E17_0" index="0" speed="13.89" length="85.60" shape="98.40,-107.20 98.40,-192.80"/>
    </edge>
    <edge id="E18" from="J11" to="J12" priority="-1">
        <lane id="E18_0" index="0" speed="13.89" length="85.60" shape="-92.80,-1.60 -7.20,-1.60"/>
    </edge>
    <edge id="E19" from="J12" to="J14" priority="-1">
        <lane id="E19_0" index="0" speed="13.89" length="85.60" shape="7.20,-1.60 92.80,-1.60"/>
    </edge>
    <edge id="E2" from="J2" to="J3" priority="-1">
        <lane id="E2_0" index="0" speed="13.89" length="89.60" shape="107.20,98.40 196.80,98.40"/>
    </edge>
    <edge id="E20" from="J14" to="J4" priority="-1">
        <lane id="E20_0" index="0" speed="13.89" length="85.60" shape="107.20,-1.60 192.80,-1.60"/>
    </edge>
    <edge id="E21" from="J10" to="J13" priority="-1">
        <lane id="E21_0" index="0" speed="13.89" length="85.60" shape="-92.80,-101.60 -7.20,-101.60"/>
    </edge>
    <edge id="E22" from="J13" to="J15" priority="-1">
        <lane id="E22_0" index="0" speed="13.89" length="85.60" shape="7.20,-101.60 92.80,-101.60"/>
    </edge>
    <edge id="E23" from="J15" to="J5" priority="-1">
        <lane id="E23_0" index="0" speed="13.89" length="85.60" shape="107.20,-101.60 192.80,-101.60"/>
    </edge>
    <edge id="E3" from="J3" to="J4" priority="-1">
        <lane id="E3_0" index="0" speed="13.89" length="89.60" shape="198.40,96.80 198.40,7.20"/>
    </edge>
    <edge id="E4" from="J4" to="J5" priority="-1">
        <lane id="E4_0" index="0" speed="13.89" length="85.60" shape="198.40,-7.20 198.40,-92.80"/>
    </edge>
    <edge id="E5" from="J5" to="J6" priority="-1">
        <lane id="E5_0" index="0" speed="13.89" length="89.60" shape="198.40,-107.20 198.40,-196.80"/>
    </edge>
    <edge id="E6" from="J6" to="J7" priority="-1">
        <lane id="E6_0" index="0" speed="13.89" length="89.60" shape="196.80,-198.40 107.20,-198.40"/>
    </edge>
    <edge id="E7" from="J7" to="J8" priority="-1">
        <lane id="E7_0" index="0" speed="13.89" length="85.60" shape="92.80,-198.40 7.20,-198.40"/>
    </edge>
    <edge id="E8" from="J8" to="J9" priority="-1">
        <lane id="E8_0" index="0" speed="13.89" length="89.60" shape="-7.20,-198.40 -96.80,-198.40"/>
    </edge>
    <edge id="E9" from="J9" to="J10" priority="-1">
        <lane id="E9_0" index="0" speed="13.89" length="89.60" shape="-98.40,-196.80 -98.40,-107.20"/>
    </edge>
