<?xml version="1.0"?>

<!--
Background mobility-only traffic for vehicle-shadowing experiments.
Adds 200 mixed-type vehicles (car, bus, truck, van) on valid Erlangen routes.
-->

<routes>
    <!-- Mixed vehicle classes for realistic blocking geometry -->
    <vType id="bg_car" accel="2.8" decel="4.5" sigma="0.5" length="4.8" minGap="2.5" maxSpeed="16" guiShape="passenger" color="0,120,255"/>
    <vType id="bg_bus" accel="1.4" decel="4.0" sigma="0.5" length="12.0" minGap="3.0" maxSpeed="12" guiShape="bus" color="255,140,0"/>
    <vType id="bg_truck" accel="1.2" decel="3.8" sigma="0.5" length="10.5" minGap="3.0" maxSpeed="11" guiShape="truck" color="120,120,120"/>
    <vType id="bg_van" accel="2.2" decel="4.3" sigma="0.5" length="6.2" minGap="2.5" maxSpeed="14" guiShape="delivery" color="0,180,120"/>

    <!-- Route set copied from existing Erlangen traffic so vehicles stay on defined roads -->
    <route id="route_bg0" edges="29900567 31401017#0 31401017#1 -8402998#3"/>
    <route id="route_bg1" edges="94344941 94344940#0 94344940#2 -94344940#2 67076129 -67076129 -94344940#0 28768072"/>
    <route id="route_bg2" edges="28768072 -28613737 28613737 -28613737 28613737"/>
    <route id="route_bg3" edges="30405358#0 30405358#1 85355912 85355911#0 25472101"/>
    <route id="route_bg4" edges="4099309 -4900739#0 4900739#0 -4900739#0 4900739#0"/>
    <route id="route_bg5" edges="4006726#0 -4006726#0 3998615#1 -3998615#1 -3998615#0 3998615#0"/>
    <route id="route_bg6" edges="29900565#0 4006691 29900564#3 -29900564#3 -29900564#2 -29900564#1 -29900564#0"/>
    <route id="route_bg7" edges="4006694 4006693#4 --5558 -5558 4006690 -29900564#5"/>
    <route id="route_bg8" edges="4900739#0 4900739#1 4900739#2 4900741 -31777493#1 31270441"/>
    <route id="route_bg9" edges="32270592#0 -4006675 4006675 32270592#1 4047532"/>
    <route id="route_bg10" edges="33174302#1 -33174302#1 -33174302#0 -32270595 -29900561#1 9643180 -8402998#1 8402998#1"/>
    <route id="route_bg11" edges="25398494#0 -25398494#0 25398494#0 113939242#2 113939244#0 -25398494#0 -31401017#2"/>
    <route id="route_bg12" edges="4006688#4 -4006688#4 4006688#4 -8403001"/>
    <route id="route_bg13" edges="4006705#0 4006703#1 -4006703#1 -4006703#0"/>
    <route id="route_bg14" edges="29900564#3 -29900564#3 -29900564#2 29900564#2"/>
    <route id="route_bg15" edges="32271499 -32271499 32271499 41973977 -41973977 -32271499"/>
    <route id="route_bg16" edges="8403007 -23341293 23341293 -23341293 10425128#1 29900564#4 -29900564#4"/>
    <route id="route_bg17" edges="25472129 31982182#0 4047241 4797872 4797871 -15259223"/>
    <route id="route_bg18" edges="4319351 4319352#0 -3013106#2 3013106#2 4006702#0 4006702#1"/>
    <route id="route_bg19" edges="4872369 -4872369 4006724#2 -4006724#2 -4006724#1 4006724#1"/>

    <!-- 20 flows x 10 vehicles each = 200 additional moving blockers -->
    <flow id="bgflow_00" type="bg_car" route="route_bg0" begin="20" end="900" number="10" departLane="random" departSpeed="random" departPos="random"/>
    <flow id="bgflow_01" type="bg_bus" route="route_bg1" begin="22" end="900" number="10" departLane="random" departSpeed="random" departPos="random"/>
    <flow id="bgflow_02" type="bg_truck" route="route_bg2" begin="24" end="900" number="10" departLane="random" departSpeed="random" departPos="random"/>
    <flow id="bgflow_03" type="bg_van" route="route_bg3" begin="26" end="900" number="10" departLane="random" departSpeed="random" departPos="random"/>
    <flow id="bgflow_04" type="bg_car" route="route_bg4" begin="28" end="900" number="10" departLane="random" departSpeed="random" departPos="random"/>
    <flow id="bgflow_05" type="bg_bus" route="route_bg5" begin="30" end="900" number="10" departLane="random" departSpeed="random" departPos="random"/>
    <flow id="bgflow_06" type="bg_truck" route="route_bg6" begin="32" end="900" number="10" departLane="random" departSpeed="random" departPos="random"/>
    <flow id="bgflow_07" type="bg_van" route="route_bg7" begin="34" end="900" number="10" departLane="random" departSpeed="random" departPos="random"/>
    <flow id="bgflow_08" type="bg_car" route="route_bg8" begin="36" end="900" number="10" departLane="random" departSpeed="random" departPos="random"/>
    <flow id="bgflow_09" type="bg_bus" route="route_bg9" begin="38" end="900" number="10" departLane="random" departSpeed="random" departPos="random"/>
    <flow id="bgflow_10" type="bg_truck" route="route_bg10" begin="40" end="900" number="10" departLane="random" departSpeed="random" departPos="random"/>
    <flow id="bgflow_11" type="bg_van" route="route_bg11" begin="42" end="900" number="10" departLane="random" departSpeed="random" departPos="random"/>
    <flow id="bgflow_12" type="bg_car" route="route_bg12" begin="44" end="900" number="10" departLane="random" departSpeed="random" departPos="random"/>
    <flow id="bgflow_13" type="bg_bus" route="route_bg13" begin="46" end="900" number="10" departLane="random" departSpeed="random" departPos="random"/>
    <flow id="bgflow_14" type="bg_truck" route="route_bg14" begin="48" end="900" number="10" departLane="random" departSpeed="random" departPos="random"/>
    <flow id="bgflow_15" type="bg_van" route="route_bg15" begin="50" end="900" number="10" departLane="random" departSpeed="random" departPos="random"/>
    <flow id="bgflow_16" type="bg_car" route="route_bg16" begin="52" end="900" number="10" departLane="random" departSpeed="random" departPos="random"/>
    <flow id="bgflow_17" type="bg_bus" route="route_bg17" begin="54" end="900" number="10" departLane="random" departSpeed="random" departPos="random"/>
    <flow id="bgflow_18" type="bg_truck" route="route_bg18" begin="56" end="900" number="10" departLane="random" departSpeed="random" departPos="random"/>
    <flow id="bgflow_19" type="bg_van" route="route_bg19" begin="58" end="900" number="10" departLane="random" departSpeed="random" departPos="random"/>
</routes>
