<?xml version="1.0"?>

<!--
30 vehicles distributed across 3 main routes with random positions
Each vehicle starts at a different position on its route edge
-->

<routes>
   <!-- Vehicle type definition -->
   <vType id="vtype0" accel="2.6" decel="4.5" sigma="0.5" length="2.5" minGap="2.5" maxSpeed="14"/>
   
   <!-- Routes generated from diverse starting points across the entire network -->
   <route id="route0" edges="29900567 31401017#0 31401017#1 -8402998#3"/>
   <route id="route1" edges="94344941 94344940#0 94344940#2 -94344940#2 67076129 -67076129 -94344940#0 28768072"/>
   <route id="route2" edges="28768072 -28613737 28613737 -28613737 28613737"/>
   <route id="route3" edges="30405358#0 30405358#1 85355912 85355911#0 25472101"/>
   <route id="route4" edges="4099309 -4900739#0 4900739#0 -4900739#0 4900739#0"/>
   <route id="route5" edges="4006726#0 -4006726#0 3998615#1 -3998615#1 -3998615#0 3998615#0"/>
   <route id="route6" edges="29900565#0 4006691 29900564#3 -29900564#3 -29900564#2 -29900564#1 -29900564#0"/>
   <route id="route7" edges="4006694 4006693#4 --5558 -5558 4006690 -29900564#5"/>
   <route id="route8" edges="4900739#0 4900739#1 4900739#2 4900741 -31777493#1 31270441"/>
   <route id="route9" edges="32270592#0 -4006675 4006675 32270592#1 4047532"/>
   <route id="route10" edges="33174302#1 -33174302#1 -33174302#0 -32270595 -29900561#1 9643180 -8402998#1 8402998#1"/>
   <route id="route11" edges="25398494#0 -25398494#0 25398494#0 113939242#2 113939244#0 -25398494#0 -31401017#2"/>
   <route id="route12" edges="4006688#4 -4006688#4 4006688#4 -8403001"/>
   <route id="route13" edges="4006705#0 4006703#1 -4006703#1 -4006703#0"/>
   <route id="route14" edges="29900564#3 -29900564#3 -29900564#2 29900564#2"/>
   <route id="route15" edges="32271499 -32271499 32271499 41973977 -41973977 -32271499"/>
   <route id="route16" edges="8403007 -23341293 23341293 -23341293 10425128#1 29900564#4 -29900564#4"/>
   <route id="route17" edges="25472129 31982182#0 4047241 4797872 4797871 -15259223"/>
   <route id="route18" edges="4319351 4319352#0 -3013106#2 3013106#2 4006702#0 4006702#1"/>
   <route id="route19" edges="4872369 -4872369 4006724#2 -4006724#2 -4006724#1 4006724#1"/>
   <route id="route20" edges="32270595 33174302#0 33174302#1 4686970#0"/>
   
   <!-- 51 vehicles distributed across 21 diverse routes with highly random positions -->
   <!-- Route 0 vehicles -->
   <vehicle id="V0" type="vtype0" route="route0" depart="0.0" departLane="random" departSpeed="random" departPos="5" color="255,0,0"/>
   <vehicle id="V1" type="vtype0" route="route0" depart="0.0" departLane="random" departSpeed="random" departPos="random" color="255,30,0"/>
   
   <!-- Route 1 vehicles -->
   <vehicle id="V2" type="vtype0" route="route1" depart="0.0" departLane="random" departSpeed="random" departPos="8" color="0,255,0"/>
   <vehicle id="V3" type="vtype0" route="route1" depart="0.0" departLane="random" departSpeed="random" departPos="random" color="30,255,0"/>
   
   <!-- Route 2 vehicles -->
   <vehicle id="V4" type="vtype0" route="route2" depart="0.0" departLane="random" departSpeed="random" departPos="12" color="0,0,255"/>
   <vehicle id="V5" type="vtype0" route="route2" depart="0.0" departLane="random" departSpeed="random" departPos="random" color="30,0,255"/>
   
   <!-- Route 3 vehicles -->
   <vehicle id="V6" type="vtype0" route="route3" depart="0.0" departLane="random" departSpeed="random" departPos="3" color="255,255,0"/>
   <vehicle id="V7" type="vtype0" route="route3" depart="0.0" departLane="random" departSpeed="random" departPos="random" color="255,255,50"/>
   <vehicle id="V8" type="vtype0" route="route3" depart="0.0" departLane="random" departSpeed="random" departPos="random" color="255,255,100"/>
   
   <!-- Route 4 vehicles -->
   <vehicle id="V9" type="vtype0" route="route4" depart="0.0" departLane="random" departSpeed="random" departPos="7" color="255,0,255"/>
   <vehicle id="V10" type="vtype0" route="route4" depart="0.0" departLane="random" departSpeed="random" departPos="random" color="255,50,255"/>
   
   <!-- Route 5 vehicles -->
   <vehicle id="V11" type="vtype0" route="route5" depart="0.0" departLane="random" departSpeed="random" departPos="15" color="0,255,255"/>
   <vehicle id="V12" type="vtype0" route="route5" depart="0.0" departLane="random" departSpeed="random" departPos="random" color="50,255,255"/>
   <vehicle id="V13" type="vtype0" route="route5" depart="0.0" departLane="random" departSpeed="random" departPos="random" color="100,255,255"/>
   
   <!-- Route 6 vehicles -->
   <vehicle id="V14" type="vtype0" route="route6" depart="0.0" departLane="random" departSpeed="random" departPos="4" color="128,0,0"/>
   <vehicle id="V15" type="vtype0" route="route6" depart="0.0" departLane="random" departSpeed="random" departPos="random" color="178,0,0"/>
   <vehicle id="V16" type="vtype0" route="route6" depart="0.0" departLane="random" departSpeed="random" departPos="random" color="228,0,0"/>
   
   <!-- Route 7 vehicles -->
   <vehicle id="V17" type="vtype0" route="route7" depart="0.0" departLane="random" departSpeed="random" departPos="20" color="0,128,0"/>
   <vehicle id="V18" type="vtype0" route="route7" depart="0.0" departLane="random" departSpeed="random" departPos="random" color="0,178,0"/>
   
   <!-- Route 8 vehicles -->
   <vehicle id="V19" type="vtype0" route="route8" depart="0.0" departLane="random" departSpeed="random" departPos="6" color="0,0,128"/>
   <vehicle id="V20" type="vtype0" route="route8" depart="0.0" departLane="random" departSpeed="random" departPos="random" color="0,0,178"/>
   <vehicle id="V21" type="vtype0" route="route8" depart="0.0" departLane="random" departSpeed="random" departPos="random" color="0,0,228"/>
   
   <!-- Route 9 vehicles -->
   <vehicle id="V22" type="vtype0" route="route9" depart="0.0" departLane="random" departSpeed="random" departPos="9" color="128,128,0"/>
   <vehicle id="V23" type="vtype0" route="route9" depart="0.0" departLane="random" departSpeed="random" departPos="random" color="178,178,0"/>
   
   <!-- Route 10 vehicles -->
   <vehicle id="V24" type="vtype0" route="route10" depart="0.0" departLane="random" departSpeed="random" departPos="11" color="128,0,128"/>
   <vehicle id="V25" type="vtype0" route="route10" depart="0.0" departLane="random" departSpeed="random" departPos="random" color="178,0,178"/>
   <vehicle id="V26" type="vtype0" route="route10" depart="0.0" departLane="random" departSpeed="random" departPos="random" color="228,0,228"/>
   
   <!-- Route 11 vehicles -->
   <vehicle id="V27" type="vtype0" route="route11" depart="0.0" departLane="random" departSpeed="random" departPos="13" color="200,100,50"/>
   <vehicle id="V28" type="vtype0" route="route11" depart="0.0" departLane="random" departSpeed="random" departPos="random" color="220,120,70"/>
   
   <!-- Route 12 vehicles -->
   <vehicle id="V29" type="vtype0" route="route12" depart="0.0" departLane="random" departSpeed="random" departPos="17" color="50,200,100"/>
   <vehicle id="V30" type="vtype0" route="route12" depart="0.0" departLane="random" departSpeed="random" departPos="random" color="70,220,120"/>
   
   <!-- Route 13 vehicles -->
   <vehicle id="V31" type="vtype0" route="route13" depart="0.0" departLane="random" departSpeed="random" departPos="10" color="100,50,200"/>
   <vehicle id="V32" type="vtype0" route="route13" depart="0.0" departLane="random" departSpeed="random" departPos="random" color="120,70,220"/>
   
   <!-- Route 14 vehicles -->
   <vehicle id="V33" type="vtype0" route="route14" depart="0.0" departLane="random" departSpeed="random" departPos="19" color="200,200,100"/>
   <vehicle id="V34" type="vtype0" route="route14" depart="0.0" departLane="random" departSpeed="random" departPos="random" color="220,220,120"/>
   <vehicle id="V35" type="vtype0" route="route14" depart="0.0" departLane="random" departSpeed="random" departPos="random" color="240,240,140"/>
   
   <!-- Route 15 vehicles -->
   <vehicle id="V36" type="vtype0" route="route15" depart="0.0" departLane="random" departSpeed="random" departPos="22" color="100,200,200"/>
   <vehicle id="V37" type="vtype0" route="route15" depart="0.0" departLane="random" departSpeed="random" departPos="random" color="120,220,220"/>
   
   <!-- Route 16 vehicles -->
   <vehicle id="V38" type="vtype0" route="route16" depart="0.0" departLane="random" departSpeed="random" departPos="14" color="200,100,200"/>
   <vehicle id="V39" type="vtype0" route="route16" depart="0.0" departLane="random" departSpeed="random" departPos="random" color="220,120,220"/>
   
   <!-- Route 17 vehicles -->
   <vehicle id="V40" type="vtype0" route="route17" depart="0.0" departLane="random" departSpeed="random" departPos="16" color="150,100,50"/>
   <vehicle id="V41" type="vtype0" route="route17" depart="0.0" departLane="random" departSpeed="random" departPos="random" color="170,120,70"/>
   <vehicle id="V42" type="vtype0" route="route17" depart="0.0" departLane="random" departSpeed="random" departPos="random" color="190,140,90"/>
   
   <!-- Route 18 vehicles -->
   <vehicle id="V43" type="vtype0" route="route18" depart="0.0" departLane="random" departSpeed="random" departPos="25" color="50,150,100"/>
   <vehicle id="V44" type="vtype0" route="route18" depart="0.0" departLane="random" departSpeed="random" departPos="random" color="70,170,120"/>
   
   <!-- Route 19 vehicles -->
   <vehicle id="V45" type="vtype0" route="route19" depart="0.0" departLane="random" departSpeed="random" departPos="18" color="100,50,150"/>
   <vehicle id="V46" type="vtype0" route="route19" depart="0.0" departLane="random" departSpeed="random" departPos="random" color="120,70,170"/>
   <vehicle id="V47" type="vtype0" route="route19" depart="0.0" departLane="random" departSpeed="random" departPos="random" color="140,90,190"/>
   
   <!-- Route 20 vehicles -->
   <vehicle id="V48" type="vtype0" route="route20" depart="0.0" departLane="random" departSpeed="random" departPos="21" color="150,150,100"/>
   <vehicle id="V49" type="vtype0" route="route20" depart="0.0" departLane="random" departSpeed="random" departPos="random" color="170,170,120"/>
   <vehicle id="V50" type="vtype0" route="route20" depart="0.0" departLane="random" departSpeed="random" departPos="random" color="190,190,140"/>

      <!-- Sustained arrivals as explicit vehicles: one vehicle per route every 300s
         (begin=200 to allow initial vehicles to settle). This avoids flow-generated
         dot-suffixed IDs and keeps strict V<number> naming throughout the simulation. -->
   <!-- Sustained vehicle arrivals as explicit vehicles (replaces flows). -->
   <!-- IDs are globally unique and monotonic: V51, V52, ... -->
   <vehicle id="V51" type="vtype0" route="route0" depart="200.0" departLane="random" departSpeed="random" departPos="random"/>
   <vehicle id="V52" type="vtype0" route="route1" depart="200.0" departLane="random" departSpeed="random" departPos="random"/>
   <vehicle id="V53" type="vtype0" route="route2" depart="200.0" departLane="random" departSpeed="random" departPos="random"/>
   <vehicle id="V54" type="vtype0" route="route3" depart="200.0" departLane="random" departSpeed="random" departPos="random"/>
   <vehicle id="V55" type="vtype0" route="route4" depart="200.0" departLane="random" departSpeed="random" departPos="random"/>
   <vehicle id="V56" type="vtype0" route="route5" depart="200.0" departLane="random" departSpeed="random" departPos="random"/>
   <vehicle id="V57" type="vtype0" route="route6" depart="200.0" departLane="random" departSpeed="random" departPos="random"/>
   <vehicle id="V58" type="vtype0" route="route7" depart="200.0" departLane="random" departSpeed="random" departPos="random"/>
   <vehicle id="V59" type="vtype0" route="route8" depart="200.0" departLane="random" departSpeed="random" departPos="random"/>
   <vehicle id="V60" type="vtype0" route="route9" depart="200.0" departLane="random" departSpeed="random" departPos="random"/>
   <vehicle id="V61" type="vtype0" route="route10" depart="200.0" departLane="random" departSpeed="random" departPos="random"/>
   <vehicle id="V62" type="vtype0" route="route11" depart="200.0" departLane="random" departSpeed="random" departPos="random"/>
   <vehicle id="V63" type="vtype0" route="route12" depart="200.0" departLane="random" departSpeed="random" departPos="random"/>
   <vehicle id="V64" type="vtype0" route="route13" depart="200.0" departLane="random" departSpeed="random" departPos="random"/>
   <vehicle id="V65" type="vtype0" route="route14" depart="200.0" departLane="random" departSpeed="random" departPos="random"/>
   <vehicle id="V66" type="vtype0" route="route15" depart="200.0" departLane="random" departSpeed="random" departPos="random"/>
   <vehicle id="V67" type="vtype0" route="route16" depart="200.0" departLane="random" departSpeed="random" departPos="random"/>
   <vehicle id="V68" type="vtype0" route="route17" depart="200.0" departLane="random" departSpeed="random" departPos="random"/>
   <vehicle id="V69" type="vtype0" route="route18" depart="200.0" departLane="random" departSpeed="random" departPos="random"/>
   <vehicle id="V70" type="vtype0" route="route19" depart="200.0" departLane="random" departSpeed="random" departPos="random"/>
   <vehicle id="V71" type="vtype0" route="route20" depart="200.0" departLane="random" departSpeed="random" departPos="random"/>
   <vehicle id="V72" type="vtype0" route="route0" depart="500.0" departLane="random" departSpeed="random" departPos="random"/>
   <vehicle id="V73" type="vtype0" route="route1" depart="500.0" departLane="random" departSpeed="random" departPos="random"/>
   <vehicle id="V74" type="vtype0" route="route2" depart="500.0" departLane="random" departSpeed="random" departPos="random"/>
   <vehicle id="V75" type="vtype0" route="route3" depart="500.0" departLane="random" departSpeed="random" departPos="random"/>
   <vehicle id="V76" type="vtype0" route="route4" depart="500.0" departLane="random" departSpeed="random" departPos="random"/>
   <vehicle id="V77" type="vtype0" route="route5" depart="500.0" departLane="random" departSpeed="random" departPos="random"/>
   <vehicle id="V78" type="vtype0" route="route6" depart="500.0" departLane="random" departSpeed="random" departPos="random"/>
   <vehicle id="V79" type="vtype0" route="route7" depart="500.0" departLane="random" departSpeed="random" departPos="random"/>
   <vehicle id="V80" type="vtype0" route="route8" depart="500.0" departLane="random" departSpeed="random" departPos="random"/>
   <vehicle id="V81" type="vtype0" route="route9" depart="500.0" departLane="random" departSpeed="random" departPos="random"/>
   <vehicle id="V82" type="vtype0" route="route10" depart="500.0" departLane="random" departSpeed="random" departPos="random"/>
   <vehicle id="V83" type="vtype0" route="route11" depart="500.0" departLane="random" departSpeed="random" departPos="random"/>
   <vehicle id="V84" type="vtype0" route="route12" depart="500.0" departLane="random" departSpeed="random" departPos="random"/>
   <vehicle id="V85" type="vtype0" route="route13" depart="500.0" departLane="random" departSpeed="random" departPos="random"/>
   <vehicle id="V86" type="vtype0" route="route14" depart="500.0" departLane="random" departSpeed="random" departPos="random"/>
   <vehicle id="V87" type="vtype0" route="route15" depart="500.0" departLane="random" departSpeed="random" departPos="random"/>
   <vehicle id="V88" type="vtype0" route="route16" depart="500.0" departLane="random" departSpeed="random" departPos="random"/>
   <vehicle id="V89" type="vtype0" route="route17" depart="500.0" departLane="random" departSpeed="random" departPos="random"/>
   <vehicle id="V90" type="vtype0" route="route18" depart="500.0" departLane="random" departSpeed="random" departPos="random"/>
   <vehicle id="V91" type="vtype0" route="route19" depart="500.0" departLane="random" departSpeed="random" departPos="random"/>
   <vehicle id="V92" type="vtype0" route="route20" depart="500.0" departLane="random" departSpeed="random" departPos="random"/>
   <vehicle id="V93" type="vtype0" route="route0" depart="800.0" departLane="random" departSpeed="random" departPos="random"/>
   <vehicle id="V94" type="vtype0" route="route1" depart="800.0" departLane="random" departSpeed="random" departPos="random"/>
   <vehicle id="V95" type="vtype0" route="route2" depart="800.0" departLane="random" departSpeed="random" departPos="random"/>
   <vehicle id="V96" type="vtype0" route="route3" depart="800.0" departLane="random" departSpeed="random" departPos="random"/>
   <vehicle id="V97" type="vtype0" route="route4" depart="800.0" departLane="random" departSpeed="random" departPos="random"/>
   <vehicle id="V98" type="vtype0" route="route5" depart="800.0" departLane="random" departSpeed="random" departPos="random"/>
   <vehicle id="V99" type="vtype0" route="route6" depart="800.0" departLane="random" departSpeed="random" departPos="random"/>
   <vehicle id="V100" type="vtype0" route="route7" depart="800.0" departLane="random" departSpeed="random" departPos="random"/>
   <vehicle id="V101" type="vtype0" route="route8" depart="800.0" departLane="random" departSpeed="random" departPos="random"/>
   <vehicle id="V102" type="vtype0" route="route9" depart="800.0" departLane="random" departSpeed="random" departPos="random"/>
   <vehicle id="V103" type="vtype0" route="route10" depart="800.0" departLane="random" departSpeed="random" departPos="random"/>
   <vehicle id="V104" type="vtype0" route="route11" depart="800.0" departLane="random" departSpeed="random" departPos="random"/>
   <vehicle id="V105" type="vtype0" route="route12" depart="800.0" departLane="random" departSpeed="random" departPos="random"/>
   <vehicle id="V106" type="vtype0" route="route13" depart="800.0" departLane="random" departSpeed="random" departPos="random"/>
   <vehicle id="V107" type="vtype0" route="route14" depart="800.0" departLane="random" departSpeed="random" departPos="random"/>
   <vehicle id="V108" type="vtype0" route="route15" depart="800.0" departLane="random" departSpeed="random" departPos="random"/>
   <vehicle id="V109" type="vtype0" route="route16" depart="800.0" departLane="random" departSpeed="random" departPos="random"/>
   <vehicle id="V110" type="vtype0" route="route17" depart="800.0" departLane="random" departSpeed="random" departPos="random"/>
   <vehicle id="V111" type="vtype0" route="route18" depart="800.0" departLane="random" departSpeed="random" departPos="random"/>
   <vehicle id="V112" type="vtype0" route="route19" depart="800.0" departLane="random" departSpeed="random" departPos="random"/>
   <vehicle id="V113" type="vtype0" route="route20" depart="800.0" departLane="random" departSpeed="random" departPos="random"/>
   <vehicle id="V114" type="vtype0" route="route0" depart="1100.0" departLane="random" departSpeed="random" departPos="random"/>
   <vehicle id="V115" type="vtype0" route="route1" depart="1100.0" departLane="random" departSpeed="random" departPos="random"/>
   <vehicle id="V116" type="vtype0" route="route2" depart="1100.0" departLane="random" departSpeed="random" departPos="random"/>
   <vehicle id="V117" type="vtype0" route="route3" depart="1100.0" departLane="random" departSpeed="random" departPos="random"/>
   <vehicle id="V118" type="vtype0" route="route4" depart="1100.0" departLane="random" departSpeed="random" departPos="random"/>
   <vehicle id="V119" type="vtype0" route="route5" depart="1100.0" departLane="random" departSpeed="random" departPos="random"/>
   <vehicle id="V120" type="vtype0" route="route6" depart="1100.0" departLane="random" departSpeed="random" departPos="random"/>
   <vehicle id="V121" type="vtype0" route="route7" depart="1100.0" departLane="random" departSpeed="random" departPos="random"/>
   <vehicle id="V122" type="vtype0" route="route8" depart="1100.0" departLane="random" departSpeed="random" departPos="random"/>
   <vehicle id="V123" type="vtype0" route="route9" depart="1100.0" departLane="random" departSpeed="random" departPos="random"/>
   <vehicle id="V124" type="vtype0" route="route10" depart="1100.0" departLane="random" departSpeed="random" departPos="random"/>
   <vehicle id="V125" type="vtype0" route="route11" depart="1100.0" departLane="random" departSpeed="random" departPos="random"/>
   <vehicle id="V126" type="vtype0" route="route12" depart="1100.0" departLane="random" departSpeed="random" departPos="random"/>
   <vehicle id="V127" type="vtype0" route="route13" depart="1100.0" departLane="random" departSpeed="random" departPos="random"/>
   <vehicle id="V128" type="vtype0" route="route14" depart="1100.0" departLane="random" departSpeed="random" departPos="random"/>
   <vehicle id="V129" type="vtype0" route="route15" depart="1100.0" departLane="random" departSpeed="random" departPos="random"/>
   <vehicle id="V130" type="vtype0" route="route16" depart="1100.0" departLane="random" departSpeed="random" departPos="random"/>
   <vehicle id="V131" type="vtype0" route="route17" depart="1100.0" departLane="random" departSpeed="random" departPos="random"/>
   <vehicle id="V132" type="vtype0" route="route18" depart="1100.0" departLane="random" departSpeed="random" departPos="random"/>
   <vehicle id="V133" type="vtype0" route="route19" depart="1100.0" departLane="random" departSpeed="random" departPos="random"/>
   <vehicle id="V134" type="vtype0" route="route20" depart="1100.0" departLane="random" departSpeed="random" departPos="random"/>
   <vehicle id="V135" type="vtype0" route="route0" depart="1400.0" departLane="random" departSpeed="random" departPos="random"/>
   <vehicle id="V136" type="vtype0" route="route1" depart="1400.0" departLane="random" departSpeed="random" departPos="random"/>
   <vehicle id="V137" type="vtype0" route="route2" depart="1400.0" departLane="random" departSpeed="random" departPos="random"/>
   <vehicle id="V138" type="vtype0" route="route3" depart="1400.0" departLane="random" departSpeed="random" departPos="random"/>
   <vehicle id="V139" type="vtype0" route="route4" depart="1400.0" departLane="random" departSpeed="random" departPos="random"/>
   <vehicle id="V140" type="vtype0" route="route5" depart="1400.0" departLane="random" departSpeed="random" departPos="random"/>
   <vehicle id="V141" type="vtype0" route="route6" depart="1400.0" departLane="random" departSpeed="random" departPos="random"/>
   <vehicle id="V142" type="vtype0" route="route7" depart="1400.0" departLane="random" departSpeed="random" departPos="random"/>
   <vehicle id="V143" type="vtype0" route="route8" depart="1400.0" departLane="random" departSpeed="random" departPos="random"/>
   <vehicle id="V144" type="vtype0" route="route9" depart="1400.0" departLane="random" departSpeed="random" departPos="random"/>
   <vehicle id="V145" type="vtype0" route="route10" depart="1400.0" departLane="random" departSpeed="random" departPos="random"/>
   <vehicle id="V146" type="vtype0" route="route11" depart="1400.0" departLane="random" departSpeed="random" departPos="random"/>
   <vehicle id="V147" type="vtype0" route="route12" depart="1400.0" departLane="random" departSpeed="random" departPos="random"/>
   <vehicle id="V148" type="vtype0" route="route13" depart="1400.0" departLane="random" departSpeed="random" departPos="random"/>
   <vehicle id="V149" type="vtype0" route="route14" depart="1400.0" departLane="random" departSpeed="random" departPos="random"/>
   <vehicle id="V150" type="vtype0" route="route15" depart="1400.0" departLane="random" departSpeed="random" departPos="random"/>
   <vehicle id="V151" type="vtype0" route="route16" depart="1400.0" departLane="random" departSpeed="random" departPos="random"/>
   <vehicle id="V152" type="vtype0" route="route17" depart="1400.0" departLane="random" departSpeed="random" departPos="random"/>
   <vehicle id="V153" type="vtype0" route="route18" depart="1400.0" departLane="random" departSpeed="random" departPos="random"/>
   <vehicle id="V154" type="vtype0" route="route19" depart="1400.0" departLane="random" departSpeed="random" departPos="random"/>
   <vehicle id="V155" type="vtype0" route="route20" depart="1400.0" departLane="random" departSpeed="random" departPos="random"/>
   <vehicle id="V156" type="vtype0" route="route0" depart="1700.0" departLane="random" departSpeed="random" departPos="random"/>
   <vehicle id="V157" type="vtype0" route="route1" depart="1700.0" departLane="random" departSpeed="random" departPos="random"/>
   <vehicle id="V158" type="vtype0" route="route2" depart="1700.0" departLane="random" departSpeed="random" departPos="random"/>
   <vehicle id="V159" type="vtype0" route="route3" depart="1700.0" departLane="random" departSpeed="random" departPos="random"/>
   <vehicle id="V160" type="vtype0" route="route4" depart="1700.0" departLane="random" departSpeed="random" departPos="random"/>
   <vehicle id="V161" type="vtype0" route="route5" depart="1700.0" departLane="random" departSpeed="random" departPos="random"/>
   <vehicle id="V162" type="vtype0" route="route6" depart="1700.0" departLane="random" departSpeed="random" departPos="random"/>
   <vehicle id="V163" type="vtype0" route="route7" depart="1700.0" departLane="random" departSpeed="random" departPos="random"/>
   <vehicle id="V164" type="vtype0" route="route8" depart="1700.0" departLane="random" departSpeed="random" departPos="random"/>
   <vehicle id="V165" type="vtype0" route="route9" depart="1700.0" departLane="random" departSpeed="random" departPos="random"/>
   <vehicle id="V166" type="vtype0" route="route10" depart="1700.0" departLane="random" departSpeed="random" departPos="random"/>
   <vehicle id="V167" type="vtype0" route="route11" depart="1700.0" departLane="random" departSpeed="random" departPos="random"/>
   <vehicle id="V168" type="vtype0" route="route12" depart="1700.0" departLane="random" departSpeed="random" departPos="random"/>
   <vehicle id="V169" type="vtype0" route="route13" depart="1700.0" departLane="random" departSpeed="random" departPos="random"/>
   <vehicle id="V170" type="vtype0" route="route14" depart="1700.0" departLane="random" departSpeed="random" departPos="random"/>
   <vehicle id="V171" type="vtype0" route="route15" depart="1700.0" departLane="random" departSpeed="random" departPos="random"/>
   <vehicle id="V172" type="vtype0" route="route16" depart="1700.0" departLane="random" departSpeed="random" departPos="random"/>
   <vehicle id="V173" type="vtype0" route="route17" depart="1700.0" departLane="random" departSpeed="random" departPos="random"/>
   <vehicle id="V174" type="vtype0" route="route18" depart="1700.0" departLane="random" departSpeed="random" departPos="random"/>
   <vehicle id="V175" type="vtype0" route="route19" depart="1700.0" departLane="random" departSpeed="random" departPos="random"/>
   <vehicle id="V176" type="vtype0" route="route20" depart="1700.0" departLane="random" departSpeed="random" departPos="random"/>
   <vehicle id="V177" type="vtype0" route="route0" depart="2000.0" departLane="random" departSpeed="random" departPos="random"/>
   <vehicle id="V178" type="vtype0" route="route1" depart="2000.0" departLane="random" departSpeed="random" departPos="random"/>
   <vehicle id="V179" type="vtype0" route="route2" depart="2000.0" departLane="random" departSpeed="random" departPos="random"/>
   <vehicle id="V180" type="vtype0" route="route3" depart="2000.0" departLane="random" departSpeed="random" departPos="random"/>
   <vehicle id="V181" type="vtype0" route="route4" depart="2000.0" departLane="random" departSpeed="random" departPos="random"/>
   <vehicle id="V182" type="vtype0" route="route5" depart="2000.0" departLane="random" departSpeed="random" departPos="random"/>
   <vehicle id="V183" type="vtype0" route="route6" depart="2000.0" departLane="random" departSpeed="random" departPos="random"/>
   <vehicle id="V184" type="vtype0" route="route7" depart="2000.0" departLane="random" departSpeed="random" departPos="random"/>
   <vehicle id="V185" type="vtype0" route="route8" depart="2000.0" departLane="random" departSpeed="random" departPos="random"/>
   <vehicle id="V186" type="vtype0" route="route9" depart="2000.0" departLane="random" departSpeed="random" departPos="random"/>
   <vehicle id="V187" type="vtype0" route="route10" depart="2000.0" departLane="random" departSpeed="random" departPos="random"/>
   <vehicle id="V188" type="vtype0" route="route11" depart="2000.0" departLane="random" departSpeed="random" departPos="random"/>
   <vehicle id="V189" type="vtype0" route="route12" depart="2000.0" departLane="random" departSpeed="random" departPos="random"/>
   <vehicle id="V190" type="vtype0" route="route13" depart="2000.0" departLane="random" departSpeed="random" departPos="random"/>
   <vehicle id="V191" type="vtype0" route="route14" depart="2000.0" departLane="random" departSpeed="random" departPos="random"/>
   <vehicle id="V192" type="vtype0" route="route15" depart="2000.0" departLane="random" departSpeed="random" departPos="random"/>
   <vehicle id="V193" type="vtype0" route="route16" depart="2000.0" departLane="random" departSpeed="random" departPos="random"/>
   <vehicle id="V194" type="vtype0" route="route17" depart="2000.0" departLane="random" departSpeed="random" departPos="random"/>
   <vehicle id="V195" type="vtype0" route="route18" depart="2000.0" departLane="random" departSpeed="random" departPos="random"/>
   <vehicle id="V196" type="vtype0" route="route19" depart="2000.0" departLane="random" departSpeed="random" departPos="random"/>
   <vehicle id="V197" type="vtype0" route="route20" depart="2000.0" departLane="random" departSpeed="random" departPos="random"/>
   <vehicle id="V198" type="vtype0" route="route0" depart="2300.0" departLane="random" departSpeed="random" departPos="random"/>
   <vehicle id="V199" type="vtype0" route="route1" depart="2300.0" departLane="random" departSpeed="random" departPos="random"/>