[General]
cmdenv-express-mode = false  # Changed to false to see detailed logs
cmdenv-autoflush = true
cmdenv-status-frequency = 1s
**.cmdenv-log-level = info

image-path = ../../images
network = ComplexNetwork

##########################################################
#            Simulation parameters                       #
##########################################################
debug-on-errors = true
print-undisposed = true
sim-time-limit = 400s

**.scalar-recording = true
**.vector-recording = true

*.playgroundSizeX = 2500m
*.playgroundSizeY = 2500m
*.playgroundSizeZ = 50m

##########################################################
#            TraCIScenarioManager parameters             #
##########################################################
*.manager.updateInterval = 1s
*.manager.host = "localhost"
*.manager.port = 9999
*.manager.autoShutdown = true
*.manager.launchConfig = xmldoc("ComplexNetwork.launched.xml")
*.manager.trafficLightModuleType = "org.car2x.veins.nodes.TrafficLight"

##########################################################
#            Connection Manager parameters               #
##########################################################
*.connectionManager.sendDirect = true
*.connectionManager.maxInterfDist = 2600m
*.connectionManager.drawMaxIntfDist = false

##########################################################
#            Traffic Light Settings                      #
##########################################################
*.tls[*].mobility.x = 0
*.tls[*].mobility.y = 0
*.tls[*].mobility.z = 3

*.tls[*].applType = "org.car2x.veins.modules.application.traci.TraCIDemoTrafficLightApp"
*.tls[*].logicType = "org.car2x.veins.modules.world.traci.trafficLight.logics.TraCITrafficLightSimpleLogic"

##########################################################
#                       RSU SETTINGS                     #
##########################################################
# RSU Position
*.rsu[0].mobility.x = 60
*.rsu[0].mobility.y = 60
*.rsu[0].mobility.z = 3

# RSU Application Settings
*.rsu[0].applType = "MyRSUApp"
*.rsu[*].appl.headerLength = 80bit
*.rsu[*].appl.sendBeacons = false
*.rsu[*].appl.dataOnSch = false
*.rsu[*].appl.beaconInterval = 4s
*.rsu[*].appl.beaconUserPriority = 7
*.rsu[*].appl.dataUserPriority = 5

# Second RSU
*.rsu[1].mobility.x = 200
*.rsu[1].mobility.y = 60
*.rsu[1].mobility.z = 3

*.rsu[1].applType = "SingleMessageRSUApp"
*.rsu[1].appl.sendOnce = true             # Enable single message sending
*.rsu[1].appl.sendTime = 5s               # Time to send the message

# RSU Physical Layer
*.rsu[*].nic.phy80211p.antennaOffsetZ = 0m

##########################################################
#                      Vehicle Nodes                     #
##########################################################
# FIXED: Vehicle Application Layer - Use your custom app
*.node[*].applType = "SingleMessageVehicleApp"  # Changed from "TraCIDemo11p"
*.node[*].appl.headerLength = 80bit
*.node[*].appl.sendBeacons = false
*.node[*].appl.dataOnSch = false
*.node[*].appl.beaconInterval = 1s

# Vehicle Mobility
*.node[*].veinsmobility.x = 0
*.node[*].veinsmobility.y = 0
*.node[*].veinsmobility.z = 0
*.node[*].veinsmobility.setHostSpeed = false
*.node[*0].veinsmobility.accidentCount = 0
*.node[*0].veinsmobility.accidentStart = 73s
*.node[*0].veinsmobility.accidentDuration = 50s

##########################################################
#            802.11p Physical Layer parameters           #
##########################################################
# Common PHY settings for all nodes
*.**.nic.phy80211p.minPowerLevel = -110dBm
*.**.nic.phy80211p.useNoiseFloor = true
*.**.nic.phy80211p.noiseFloor = -98dBm
*.**.nic.phy80211p.usePropagationDelay = true
*.**.nic.phy80211p.decider = xmldoc("config.xml")
*.**.nic.phy80211p.analogueModels = xmldoc("config.xml")

# Antenna configuration
*.**.nic.phy80211p.antenna = xmldoc("antenna.xml", "/root/Antenna[@id='monopole']")
*.node[*].nic.phy80211p.antennaOffsetY = 0m
*.node[*].nic.phy80211p.antennaOffsetZ = 1.895m

##########################################################
#            802.11p MAC Layer parameters                #
##########################################################
*.**.nic.mac1609_4.useServiceChannel = false
*.**.nic.mac1609_4.txPower = 20mW
*.**.nic.mac1609_4.bitrate = 6Mbps

##########################################################
# Obstacle parameters                                    #
##########################################################
# Disable obstacles by not loading any obstacle definitions
# *.obstacles.obstacles = xmldoc("config.xml", "//AnalogueModel[@type='SimpleObstacleShadowing']/obstacles")
*.obstacles.debug = true

##########################################################
# Annotation parameters                                  #
##########################################################
*.annotations.draw = true

##########################################################
#                      Configs                           #
##########################################################
[Config Default]

[Config WithBeaconing]
*.rsu[*].appl.sendBeacons = true
*.node[*].appl.sendBeacons = true

[Config WithChannelSwitching]
*.**.nic.mac1609_4.useServiceChannel = true
*.node[*].appl.dataOnSch = true
*.rsu[*].appl.dataOnSch = true