[General]
cmdenv-express-mode = false  # Changed to false to see detailed logs
cmdenv-autoflush = true
cmdenv-status-frequency = 1s
**.cmdenv-log-level = info

image-path = ../../images
network = ComplexNetwork

##########################################################
#            Simulation parameters                       #
##########################################################
debug-on-errors = true
print-undisposed = true
sim-time-limit = 400s

**.scalar-recording = true
**.vector-recording = true
*.**.nic.mac1609_4.promiscuous = false

*.playgroundSizeX = 2500m
*.playgroundSizeY = 2500m
*.playgroundSizeZ = 50m

##########################################################
#            TraCIScenarioManager parameters             #
##########################################################
*.manager.updateInterval = 1s
*.manager.host = "localhost"
*.manager.port = 9999
*.manager.autoShutdown = true
*.manager.launchConfig = xmldoc("ComplexNetwork.launched.xml")
*.manager.trafficLightModuleType = "org.car2x.veins.nodes.TrafficLight"

##########################################################
#            Connection Manager parameters               #
##########################################################
*.connectionManager.sendDirect = true
*.connectionManager.maxInterfDist = 2600m
*.connectionManager.drawMaxIntfDist = false

##########################################################
#            Traffic Light Settings                      #
##########################################################
*.tls[*].mobility.x = 0
*.tls[*].mobility.y = 0
*.tls[*].mobility.z = 3

*.tls[*].applType = "org.car2x.veins.modules.application.traci.TraCIDemoTrafficLightApp"
*.tls[*].logicType = "org.car2x.veins.modules.world.traci.trafficLight.logics.TraCITrafficLightSimpleLogic"

##########################################################
#                       RSU SETTINGS                     #
##########################################################
*.rsu[*].nic.mac1609_4.useAcks = true
*.node[*].nic.mac1609_4.useAcks = true

# RSU Position
*.rsu[0].mobility.x = 60
*.rsu[0].mobility.y = 60
*.rsu[0].mobility.z = 3

# RSU Application Settings
*.rsu[0].applType = "MyRSUApp"
*.rsu[*].appl.headerLength = 80bit
*.rsu[*].appl.sendBeacons = false
*.rsu[*].appl.dataOnSch = false
*.rsu[*].appl.beaconInterval = 4s
*.rsu[*].appl.beaconUserPriority = 7
*.rsu[*].appl.dataUserPriority = 5

# Second RSU
*.rsu[1].mobility.x = 200
*.rsu[1].mobility.y = 60
*.rsu[1].mobility.z = 3

*.rsu[1].applType = "SingleMessageRSUApp"
*.rsu[1].appl.sendOnce = true             # Enable single message sending
*.rsu[1].appl.sendTime = 5s               # Time to send the message
*.rsu[*].nic.mac1609_4.promiscuous = false
*.car[*].nic.mac1609_4.promiscuous = false
# RSU Physical Layer
*.rsu[*].nic.phy80211p.antennaOffsetZ = 0m

##########################################################
#                      Vehicle Nodes                     #
##########################################################
# FIXED: Vehicle Application Layer - Use your custom app
# *.node[*].applType = "SingleMessageVehicleApp"  # Default for all nodes

# Special configuration for vehicle[0] to use PayloadVehicleApp
*.node[*].applType = "PayloadVehicleApp"  # Use our new payload app for the first vehicle

*.node[*].appl.headerLength = 80bit
*.node[*].appl.sendBeacons = false
*.node[*].appl.dataOnSch = false
*.node[*].appl.beaconInterval = 1s

# PayloadVehicleApp specific parameters
*.node[*].appl.initFlocHz = uniform(3e9, 7e9)        # local CPU capacity (Hz)
*.node[*].appl.initTxPower_mW = uniform(50, 200)     # radio TX power budget (mW)
*.node[*].appl.heartbeatIntervalS = 0.5s             # heartbeat interval
*.node[*].appl.taskGenIntervalS = uniform(1s, 3s)    # task generation interval
*.node[*].appl.paramJitterFactor = 0.0               # no jitter
*.node[*].appl.taskSizeB_min = 1e5
*.node[*].appl.taskSizeB_max = 1.5e5
*.node[*].appl.cpuPerByte_min = 2e6
*.node[*].appl.cpuPerByte_max = 4e6
*.node[*].appl.deadlineS_min = 0.15s
*.node[*].appl.deadlineS_max = 0.35s
*.node[*].appl.divs_min = 1
*.node[*].appl.divs_max = 4

# Vehicle Mobility
*.node[*].veinsmobility.x = 0
*.node[*].veinsmobility.y = 0
*.node[*].veinsmobility.z = 0
*.node[*].veinsmobility.setHostSpeed = false
*.node[*0].veinsmobility.accidentCount = 0
*.node[*0].veinsmobility.accidentStart = 73s
*.node[*0].veinsmobility.accidentDuration = 50s

# ---- V2V: node[4] -> node[0] at t=7s
*.node[1].appl.targetKind = "vehicle"
*.node[1].appl.targetVehicleIndex = 0
*.node[1].appl.sendTime = 10s

# ---- V2I: node[6] -> rsu[1] at t=12s
*.node[6].appl.targetKind = "rsu"
*.node[6].appl.targetRsuIndex = 1
*.node[6].appl.sendTime = 12s

# Visuals (optional): show only the intended unicast flows as dotted lines
*.visualizer.dataLinkVisualizer.displayLinks = true
*.visualizer.dataLinkVisualizer.packetFilter = "TrueUnicastV2V* TrueUnicastV2I*"
*.visualizer.dataLinkVisualizer.lineStyle = "dotted"
*.visualizer.dataLinkVisualizer.lineWidth = 2
*.visualizer.physicalLinkVisualizer.displayLinks = false

##########################################################
#            802.11p Physical Layer parameters           #
##########################################################
# Common PHY settings for all nodes
*.**.nic.phy80211p.minPowerLevel = -110dBm
*.**.nic.phy80211p.useNoiseFloor = true
*.**.nic.phy80211p.noiseFloor = -98dBm
*.**.nic.phy80211p.usePropagationDelay = true
*.**.nic.phy80211p.decider = xmldoc("config.xml")
*.**.nic.phy80211p.analogueModels = xmldoc("config.xml")

# Antenna configuration
*.**.nic.phy80211p.antenna = xmldoc("antenna.xml", "/root/Antenna[@id='monopole']")
*.node[*].nic.phy80211p.antennaOffsetY = 0m
*.node[*].nic.phy80211p.antennaOffsetZ = 1.895m

##########################################################
#            802.11p MAC Layer parameters                #
##########################################################
# IMPORTANT: Enable unicast support by enabling ACKs
*.**.nic.mac1609_4.useAcks = true
*.**.nic.mac1609_4.useServiceChannel = false
*.**.nic.mac1609_4.txPower = 20mW
*.**.nic.mac1609_4.bitrate = 6Mbps

##########################################################
# Obstacle parameters                                    #
##########################################################
# Disable obstacles by not loading any obstacle definitions
# *.obstacles.obstacles = xmldoc("config.xml", "//AnalogueModel[@type='SimpleObstacleShadowing']/obstacles")
*.obstacles.debug = true

##########################################################
# Annotation parameters                                  #
##########################################################
*.annotations.draw = true

##########################################################
#                      Configs                           #
##########################################################
[Config Default]

[Config WithBeaconing]
*.rsu[*].appl.sendBeacons = true
*.node[*].appl.sendBeacons = true

[Config WithChannelSwitching]
*.**.nic.mac1609_4.useServiceChannel = true
*.node[*].appl.dataOnSch = true
*.rsu[*].appl.dataOnSch = true

[Config DT-PreSync]
extends = Default

seed-set = ${repetition}
num-rngs = 3

# Vehicles use separated heartbeat + task arrival
*.node[*].applType = "VehicleApp"

# Vehicle (persistent) state
*.node[*].appl.initFlocHz       = uniform(3e9, 7e9, 2)
*.node[*].appl.initTxPower_mW   = uniform(50, 200, 2)

# Heartbeat cadence (vehicle status only)
*.node[*].appl.heartbeatIntervalS = 0.5s     # e.g., 2 Hz; set 0.1s for 10 Hz if needed

# Task arrival cadence (independent of heartbeat)
*.node[*].appl.taskGenIntervalS = uniform(1s, 3s, 2)  # mean ~2 s
*.node[*].appl.paramJitterFactor = 0.0                # 0 = no slow drift of Floc/TxP

# Task distributions (metadata only generated at task arrivals)
*.node[*].appl.taskSizeB_min   = 1e5
*.node[*].appl.taskSizeB_max   = 1.5e5
*.node[*].appl.cpuPerByte_min  = 2e6
*.node[*].appl.cpuPerByte_max  = 4e6
*.node[*].appl.deadlineS_min   = 0.15s
*.node[*].appl.deadlineS_max   = 0.35s
*.node[*].appl.divs_min        = 1
*.node[*].appl.divs_max        = 4

# Keep RSUs as before
*.rsu[0].applType = "MyRSUApp"
*.rsu[1].applType = "SingleMessageRSUApp"

##########################################################
#          Task Offloading Scenario Configuration        #
##########################################################
[Config TaskOffloading]
extends = Default

# ==================== SERVICE VEHICLES (SVs) ====================
# node[0], node[1], node[2] are Service Vehicles (hardcoded)
*.node[0].applType = "ServiceVehicleApp"
*.node[1].applType = "ServiceVehicleApp"
*.node[2].applType = "ServiceVehicleApp"

# SV Parameters
*.node[0..2].appl.totalCpuFreqHz = 10e9          # 10 GHz CPU
*.node[0..2].appl.transmitPowerW = 0.1           # 100 mW
*.node[0..2].appl.availableBandwidthHz = 10e6    # 10 MHz
*.node[0..2].appl.v2vCommRange = 300m            # 300m V2V range

# SV Energy Parameters
*.node[0..2].appl.energyIdle_mW = 100            # 100 mW idle
*.node[0..2].appl.energyTx_mW = 500              # 500 mW TX
*.node[0..2].appl.energyRx_mW = 200              # 200 mW RX
*.node[0..2].appl.energyCompute_mW_per_GHz = 1000 # 1W per GHz

# SV Update Intervals
*.node[0..2].appl.heartbeatInterval = 1s
*.node[0..2].appl.discoveryInterval = 0.5s
*.node[0..2].appl.energyUpdateInterval = 0.1s

# ==================== TASK VEHICLES (TVs) ====================
# node[3] onwards are Task Vehicles (hardcoded)
*.node[3..20].applType = "TaskVehicleApp"

# TV CPU Parameters
*.node[3..20].appl.localCpuFreqHz = uniform(2e9, 4e9)  # 2-4 GHz local CPU

# TV Task Generation Parameters
*.node[3..20].appl.taskCycles_min = 1e8          # 100M cycles min
*.node[3..20].appl.taskCycles_max = 1e9          # 1B cycles max
*.node[3..20].appl.taskSize_min = 1e5            # 100 KB
*.node[3..20].appl.taskSize_max = 1e6            # 1 MB
*.node[3..20].appl.taskDelay_min = 0.1s          # 100ms min delay
*.node[3..20].appl.taskDelay_max = 1.0s          # 1s max delay
*.node[3..20].appl.taskGenerationInterval = exponential(2s) # Mean 2s

# TV Communication Parameters
*.node[3..20].appl.transmitPowerW = 0.1          # 100 mW
*.node[3..20].appl.v2vCommRange = 300m           # 300m V2V
*.node[3..20].appl.v2iCommRange = 500m           # 500m V2I (RSU)

# TV Energy Parameters
*.node[3..20].appl.energyIdle_mW = 50            # 50 mW idle
*.node[3..20].appl.energyTx_mW = 300             # 300 mW TX
*.node[3..20].appl.energyRx_mW = 150             # 150 mW RX
*.node[3..20].appl.energyCompute_mW_per_GHz = 800 # 800 mW per GHz

# TV Update Intervals
*.node[3..20].appl.heartbeatInterval = 1s
*.node[3..20].appl.discoveryInterval = 0.5s
*.node[3..20].appl.energyUpdateInterval = 0.1s

# ==================== COMPUTE-CAPABLE RSUs ====================
*.rsu[0].applType = "ComputeRSUApp"
*.rsu[1].applType = "ComputeRSUApp"

# RSU CPU & Compute Parameters
*.rsu[*].appl.totalCpuFreqHz = 20e9              # 20 GHz (2x vehicle)

# RSU Communication Parameters
*.rsu[*].appl.transmitPowerW = 1.0               # 1W (10x vehicle)
*.rsu[*].appl.totalBandwidthHz = 20e6            # 20 MHz

# RSU Energy Parameters
*.rsu[*].appl.energyIdle_mW = 500                # 500 mW idle
*.rsu[*].appl.energyTx_mW = 2000                 # 2W TX
*.rsu[*].appl.energyRx_mW = 800                  # 800 mW RX
*.rsu[*].appl.energyCompute_mW_per_GHz = 1500    # 1.5W per GHz

# RSU Update Intervals
*.rsu[*].appl.heartbeatInterval = 1s
*.rsu[*].appl.energyUpdateInterval = 0.1s


