<?xml version="1.0" encoding="UTF-8"?>

<!-- Modified for realistic random vehicle distribution with diverse starting locations -->

<routes xmlns:xsi="http://www.w3.org/2001/XMLSchema-instance" xsi:noNamespaceSchemaLocation="http://sumo.dlr.de/xsd/routes_file.xsd">
    
    <!-- Vehicles distributed randomly across the network -->
    <!-- Starting from TOP-LEFT corner (J0 area) -->
    <vehicle id="v_0" depart="1.23" departLane="random" departSpeed="random" color="255,0,0">
        <route edges="E0 E1 E2 E3 E4 E5"/>
    </vehicle>
    <vehicle id="v_1" depart="12.67" departLane="random" departSpeed="random" color="255,50,0">
        <route edges="E11 E0 E1 E12 E13 E14"/>
    </vehicle>
    
    <!-- Starting from TOP-CENTER (J1, J2 area) -->
    <vehicle id="v_2" depart="3.45" departLane="random" departSpeed="random" color="0,255,0">
        <route edges="E1 E2 E3 E4 E5 E6 E7"/>
    </vehicle>
    <vehicle id="v_3" depart="18.89" departLane="random" departSpeed="random" color="50,255,0">
        <route edges="E1 E15 E16 E17 E6 E7"/>
    </vehicle>
    <vehicle id="v_4" depart="24.34" departLane="random" departSpeed="random" color="100,255,0">
        <route edges="E2 E3 E4 E5 E6"/>
    </vehicle>
    
    <!-- Starting from TOP-RIGHT (J3, J2 area) -->
    <vehicle id="v_5" depart="6.78" departLane="random" departSpeed="random" color="0,0,255">
        <route edges="E3 E4 E5 E6 E7 E8"/>
    </vehicle>
    <vehicle id="v_6" depart="31.12" departLane="random" departSpeed="random" color="0,50,255">
        <route edges="E2 E15 E19 E20 E4 E5"/>
    </vehicle>
    
    <!-- Starting from MIDDLE-LEFT (J11, J10 area) -->
    <vehicle id="v_7" depart="9.56" departLane="random" departSpeed="random" color="255,0,255">
        <route edges="E10 E11 E0 E1 E2"/>
    </vehicle>
    <vehicle id="v_8" depart="34.23" departLane="random" departSpeed="random" color="255,0,200">
        <route edges="E11 E0 E1 E15 E16 E17"/>
    </vehicle>
    <vehicle id="v_9" depart="15.91" departLane="random" departSpeed="random" color="255,0,150">
        <route edges="E10 E18 E19 E20 E4"/>
    </vehicle>
    <vehicle id="v_10" depart="42.45" departLane="random" departSpeed="random" color="200,0,255">
        <route edges="E10 E21 E22 E23 E5 E6"/>
    </vehicle>
    
    <!-- Starting from CENTER (J12 area) -->
    <vehicle id="v_11" depart="21.78" departLane="random" departSpeed="random" color="0,255,255">
        <route edges="E12 E13 E14 E7 E8"/>
    </vehicle>
    <vehicle id="v_12" depart="28.23" departLane="random" departSpeed="random" color="0,200,255">
        <route edges="E18 E19 E20 E4 E5 E6"/>
    </vehicle>
    <vehicle id="v_13" depart="37.67" departLane="random" departSpeed="random" color="0,150,255">
        <route edges="E19 E20 E4 E5 E6 E7"/>
    </vehicle>
    <vehicle id="v_14" depart="45.89" departLane="random" departSpeed="random" color="0,255,200">
        <route edges="E12 E19 E20 E3 E4"/>
    </vehicle>
    <vehicle id="v_15" depart="53.34" departLane="random" departSpeed="random" color="0,255,150">
        <route edges="E18 E19 E15 E16 E23 E5"/>
    </vehicle>
    
    <!-- Starting from MIDDLE-RIGHT (J14, J4 area) -->
    <vehicle id="v_16" depart="26.56" departLane="random" departSpeed="random" color="255,255,0">
        <route edges="E15 E16 E17 E6 E7"/>
    </vehicle>
    <vehicle id="v_17" depart="49.12" departLane="random" departSpeed="random" color="255,200,0">
        <route edges="E20 E4 E5 E6 E7 E8"/>
    </vehicle>
    <vehicle id="v_18" depart="61.45" departLane="random" departSpeed="random" color="255,150,0">
        <route edges="E16 E17 E6 E7 E8 E9"/>
    </vehicle>
    <vehicle id="v_19" depart="38.78" departLane="random" departSpeed="random" color="200,255,0">
        <route edges="E15 E19 E20 E3 E4"/>
    </vehicle>
    
    <!-- Starting from BOTTOM-LEFT (J9, J10 area) -->
    <vehicle id="v_20" depart="42.34" departLane="random" departSpeed="random" color="128,128,255">
        <route edges="E9 E10 E11 E0 E1"/>
    </vehicle>
    <vehicle id="v_21" depart="55.89" departLane="random" departSpeed="random" color="128,100,255">
        <route edges="E9 E10 E18 E12 E19"/>
    </vehicle>
    <vehicle id="v_22" depart="68.67" departLane="random" departSpeed="random" color="128,150,255">
        <route edges="E10 E21 E13 E22 E23"/>
    </vehicle>
    <vehicle id="v_23" depart="4.23" departLane="random" departSpeed="random" color="100,128,255">
        <route edges="E21 E22 E23 E5 E6 E7"/>
    </vehicle>
    
    <!-- Starting from BOTTOM-CENTER (J13, J8 area) -->
    <vehicle id="v_24" depart="52.45" departLane="random" departSpeed="random" color="255,128,128">
        <route edges="E13 E14 E7 E8 E9"/>
    </vehicle>
    <vehicle id="v_25" depart="46.78" departLane="random" departSpeed="random" color="255,100,128">
        <route edges="E14 E7 E8 E9 E10"/>
    </vehicle>
    <vehicle id="v_26" depart="71.12" departLane="random" departSpeed="random" color="255,150,128">
        <route edges="E21 E13 E14 E7 E6"/>
    </vehicle>
    <vehicle id="v_27" depart="64.56" departLane="random" departSpeed="random" color="255,128,100">
        <route edges="E13 E22 E23 E4 E3"/>
    </vehicle>
    <vehicle id="v_28" depart="78.91" departLane="random" departSpeed="random" color="255,128,150">
        <route edges="E8 E9 E10 E18 E12"/>
    </vehicle>
    <vehicle id="v_29" depart="8.34" departLane="random" departSpeed="random" color="200,128,128">
        <route edges="E7 E8 E9 E10 E11"/>
    </vehicle>
    
    <!-- Starting from BOTTOM-RIGHT (J15, J5, J6, J7 area) -->
    <vehicle id="v_30" depart="29.45" departLane="random" departSpeed="random" color="128,255,128">
        <route edges="E4 E5 E6 E7 E8"/>
    </vehicle>
    <vehicle id="v_31" depart="72.78" departLane="random" departSpeed="random" color="100,255,128">
        <route edges="E5 E6 E7 E8 E9 E10"/>
    </vehicle>
    <vehicle id="v_32" depart="58.23" departLane="random" departSpeed="random" color="150,255,128">
        <route edges="E6 E7 E8 E9 E10 E11"/>
    </vehicle>
    <vehicle id="v_33" depart="11.89" departLane="random" departSpeed="random" color="128,255,100">
        <route edges="E23 E5 E6 E7 E6 E17"/>
    </vehicle>
    <vehicle id="v_34" depart="82.56" departLane="random" departSpeed="random" color="128,255,150">
        <route edges="E22 E23 E5 E6 E7"/>
    </vehicle>
    <vehicle id="v_35" depart="66.34" departLane="random" departSpeed="random" color="128,200,128">
        <route edges="E17 E6 E7 E8 E9"/>
    </vehicle>
    
    <!-- Additional vehicles for better distribution -->
    <vehicle id="v_36" depart="75.67" departLane="random" departSpeed="random" color="192,192,64">
        <route edges="E0 E1 E15 E16 E23 E5"/>
    </vehicle>
    <vehicle id="v_37" depart="19.12" departLane="random" departSpeed="random" color="192,64,192">
        <route edges="E3 E4 E5 E6 E7 E8 E9"/>
    </vehicle>
    <vehicle id="v_38" depart="88.45" departLane="random" departSpeed="random" color="64,192,192">
        <route edges="E11 E0 E1 E2 E3 E4"/>
    </vehicle>
    <vehicle id="v_39" depart="33.91" departLane="random" departSpeed="random" color="192,192,192">
        <route edges="E10 E18 E12 E13 E14"/>
    </vehicle>
    <vehicle id="v_40" depart="92.34" departLane="random" departSpeed="random" color="64,64,192">
        <route edges="E16 E17 E6 E5 E4 E3"/>
    </vehicle>
    <vehicle id="v_41" depart="14.78" departLane="random" departSpeed="random" color="192,64,64">
        <route edges="E20 E4 E3 E2 E1 E0"/>
    </vehicle>
    <vehicle id="v_42" depart="48.23" departLane="random" departSpeed="random" color="64,192,64">
        <route edges="E19 E15 E2 E3 E4"/>
    </vehicle>
    <vehicle id="v_43" depart="81.67" departLane="random" departSpeed="random" color="128,192,64">
        <route edges="E21 E13 E12 E19 E20"/>
    </vehicle>
    <vehicle id="v_44" depart="25.45" departLane="random" departSpeed="random" color="64,128,192">
        <route edges="E22 E23 E5 E4 E3"/>
    </vehicle>
    <vehicle id="v_45" depart="96.89" departLane="random" departSpeed="random" color="192,128,64">
        <route edges="E9 E10 E21 E22 E17"/>
    </vehicle>
    <vehicle id="v_46" depart="69.12" departLane="random" departSpeed="random" color="128,64,192">
        <route edges="E1 E12 E18 E11 E10"/>
    </vehicle>
    <vehicle id="v_47" depart="39.56" departLane="random" departSpeed="random" color="64,128,128">
        <route edges="E15 E16 E17 E7 E14"/>
    </vehicle>
    <vehicle id="v_48" depart="85.91" departLane="random" departSpeed="random" color="128,128,192">
        <route edges="E2 E15 E19 E12 E13"/>
    </vehicle>
    <vehicle id="v_49" depart="56.34" departLane="random" departSpeed="random" color="192,128,128">
        <route edges="E4 E20 E19 E15 E1"/>
    </vehicle>

</routes>
